/*---------------------------------------------------------------------------*\
| =========                 |                                                 |
| \\      /  F ield         | OpenFOAM: The Open Source CFD Toolbox           |
|  \\    /   O peration     | Version:  4.0                                   |
|   \\  /    A nd           | Web:      www.OpenFOAM.org                      |
|    \\/     M anipulation  |                                                 |
\*---------------------------------------------------------------------------*/
Build  : 4.0-665f1db4c1f1
Exec   : blockMesh
Date   : Nov 24 2016
Time   : 14:40:49
Host   : "victorPC"
PID    : 7553
Case   : /home/victor/Documents/Git/CFDcourse/project/case/XtremeMesh/turbofan_npv2
nProcs : 1
sigFpe : Enabling floating point exception trapping (FOAM_SIGFPE).
fileModificationChecking : Monitoring run-time modified files using timeStampMaster
allowSystemOperations : Allowing user-supplied system call operations

// * * * * * * * * * * * * * * * * * * * * * * * * * * * * * * * * * * * * * //
Create time

Creating block mesh from
    "/home/victor/Documents/Git/CFDcourse/project/case/XtremeMesh/turbofan_npv2/system/blockMeshDict"
Creating curved edges
Creating topology blocks
Creating topology patches

Creating block mesh topology

Check topology

	Basic statistics
		Number of internal faces : 0
		Number of boundary faces : 6
		Number of defined boundary faces : 6
		Number of undefined boundary faces : 0
	Checking patch -> block consistency

Creating block offsets
Creating merge list .

Creating polyMesh from blockMesh
Creating patches
Creating cells
Creating points with scale 1
    Block 0 cell size :
        i : 0.0483333 .. 0.0483333
        j : 0.05 .. 0.05
        k : 0.05 .. 0.05


There are no merge patch pairs edges

Writing polyMesh
----------------
Mesh Information
----------------
  boundingBox: (0.77 0 0) (1.35 2.3 2.3)
  nPoints: 28717
  nCells: 25392
  nFaces: 79396
  nInternalFaces: 72956
----------------
Patches
----------------
  patch 0 (start: 72956 size: 2208) name: frontAndBack
  patch 1 (start: 75164 size: 2116) name: inlet
  patch 2 (start: 77280 size: 2116) name: outlet

End

