/*---------------------------------------------------------------------------*\
| =========                 |                                                 |
| \\      /  F ield         | OpenFOAM: The Open Source CFD Toolbox           |
|  \\    /   O peration     | Version:  4.0                                   |
|   \\  /    A nd           | Web:      www.OpenFOAM.org                      |
|    \\/     M anipulation  |                                                 |
\*---------------------------------------------------------------------------*/
Build  : 4.0-665f1db4c1f1
Exec   : /opt/openfoam4/platforms/linux64GccDPInt32Opt/bin/snappyHexMesh -overwrite
Date   : Dec 09 2016
Time   : 15:07:55
Host   : "victorPC"
PID    : 6712
Case   : /home/victor/Desktop/Final/pimpleDyMFoam/turbofan_clean
nProcs : 1
sigFpe : Enabling floating point exception trapping (FOAM_SIGFPE).
fileModificationChecking : Monitoring run-time modified files using timeStampMaster
allowSystemOperations : Allowing user-supplied system call operations

// * * * * * * * * * * * * * * * * * * * * * * * * * * * * * * * * * * * * * //
Create time

Create mesh for time = 0

Read mesh in = 0.01 s

Overall mesh bounding box  : (0.77 0 0) (1.35 2.3 2.3)
Relative tolerance         : 1e-06
Absolute matching distance : 3.304e-06

Reading refinement surfaces.
Read refinement surfaces in = 0.16 s

Reading refinement shells.
Read refinement shells in = 0 s

Setting refinement level of surface to be consistent with shells.
Checked shell refinement in = 0 s

Reading features.
Read edgeMesh NacelleStator.eMesh
    points      : 276
    edges       : 314
    boundingBox : (0.815061 0.167493 0.106427) (2.96543 2.16247 2.20615)

Refinement level according to distance to "NacelleStator.eMesh" (276 points, 314 edges).
    level 1 for all cells within 0 metre.
Read edgeMesh LPSpool.eMesh
    points      : 0
    edges       : 0
    boundingBox : (0 0 0) (0 0 0)

Refinement level according to distance to "LPSpool.eMesh" (0 points, 0 edges).
    level 2 for all cells within 0 metre.
--> FOAM Warning : 
    From function Foam::treeBoundBox::treeBoundBox(const Foam::UList<Foam::Vector<double> >&)
    in file meshes/treeBoundBox/treeBoundBox.C at line 135
    cannot find bounding box for zero-sized pointField, returning zero
Read features in = 0 s


Determining initial surface intersections
-----------------------------------------

Edge intersection testing:
    Number of edges             : 79396
    Number of edges to retest   : 79396
    Number of intersected edges : 9974
Calculated surface intersections in = 0.28 s

Initial mesh : cells:25392  faces:79396  points:28717
Cells per refinement level:
    0	25392

Adding patches for surface regions
----------------------------------

Patch Type                Region                        
----- ----                ------                        
Fan:

3     wall                Fan                           

HPSpool:

4     wall                HPSpool                       

LPSpool:

5     wall                LPSpool                       

NacelleStator:

6     wall                NacelleStator                 

AMI:

7     wall                AMI                           
8     wall                AMI_slave                     

Added patches in = 0 s

Selecting decompositionMethod none
Layer thickness specified as final layer and expansion ratio.

Refinement phase
----------------

Found point (0.974432 1.40534 1.24221) in cell 13588 on processor 0

Feature refinement iteration 0
------------------------------

Marked for refinement due to explicit features             : 140 cells.
Determined cells to refine in = 0.24 s
Selected for feature refinement : 140 cells (out of 25392)
Edge intersection testing:
    Number of edges             : 83209
    Number of edges to retest   : 6612
    Number of intersected edges : 10531
Refined mesh in = 0.1 s
After refinement feature refinement iteration 0 : cells:26372  faces:83209  points:30732
Cells per refinement level:
    0	25252
    1	1120

Feature refinement iteration 1
------------------------------

Marked for refinement due to explicit features             : 0 cells.
Determined cells to refine in = 0.22 s
Selected for feature refinement : 0 cells (out of 26372)
Stopping refining since too few cells selected.


Surface refinement iteration 0
------------------------------

Marked for refinement due to surface intersection          : 8391 cells.
Marked for refinement due to curvature/regions             : 0 cells.
Determined cells to refine in = 0.02 s
Selected for refinement : 8482 cells (out of 26372)
Edge intersection testing:
    Number of edges             : 276220
    Number of edges to retest   : 240147
    Number of intersected edges : 51144
Refined mesh in = 0.62 s
After refinement surface refinement iteration 0 : cells:85746  faces:276220  points:105324
Cells per refinement level:
    0	17211
    1	65007
    2	3528

Surface refinement iteration 1
------------------------------

Marked for refinement due to surface intersection          : 41669 cells.
Marked for refinement due to curvature/regions             : 25 cells.
Determined cells to refine in = 0.08 s
Selected for refinement : 43441 cells (out of 85746)
Edge intersection testing:
    Number of edges             : 1247431
    Number of edges to retest   : 1200725
    Number of intersected edges : 223980
Refined mesh in = 3.23 s
After refinement surface refinement iteration 1 : cells:389833  faces:1247431  points:467065
Cells per refinement level:
    0	15360
    1	38250
    2	336023
    3	200

Surface refinement iteration 2
------------------------------

Marked for refinement due to surface intersection          : 824 cells.
Marked for refinement due to curvature/regions             : 29280 cells.
Determined cells to refine in = 1.04 s
Selected for refinement : 30770 cells (out of 389833)
Edge intersection testing:
    Number of edges             : 1934455
    Number of edges to retest   : 889947
    Number of intersected edges : 359849
Refined mesh in = 3.9 s
After refinement surface refinement iteration 2 : cells:605223  faces:1934455  points:723649
Cells per refinement level:
    0	15319
    1	37129
    2	318335
    3	234440

Surface refinement iteration 3
------------------------------

Marked for refinement due to surface intersection          : 30 cells.
Marked for refinement due to curvature/regions             : 1427 cells.
Determined cells to refine in = 1.74 s
Selected for refinement : 1578 cells (out of 605223)
Edge intersection testing:
    Number of edges             : 1968901
    Number of edges to retest   : 126406
    Number of intersected edges : 363611
Refined mesh in = 2.37 s
After refinement surface refinement iteration 3 : cells:616269  faces:1968901  points:735875
Cells per refinement level:
    0	15295
    1	37194
    2	317924
    3	245856

Surface refinement iteration 4
------------------------------

Marked for refinement due to surface intersection          : 0 cells.
Marked for refinement due to curvature/regions             : 188 cells.
Determined cells to refine in = 1.71 s
Selected for refinement : 203 cells (out of 616269)
Edge intersection testing:
    Number of edges             : 1973248
    Number of edges to retest   : 18205
    Number of intersected edges : 363876
Refined mesh in = 2.06 s
After refinement surface refinement iteration 4 : cells:617690  faces:1973248  points:737345
Cells per refinement level:
    0	15295
    1	37179
    2	317856
    3	247360

Surface refinement iteration 5
------------------------------

Marked for refinement due to surface intersection          : 0 cells.
Marked for refinement due to curvature/regions             : 37 cells.
Determined cells to refine in = 1.72 s
Selected for refinement : 41 cells (out of 617690)
Edge intersection testing:
    Number of edges             : 1974133
    Number of edges to retest   : 3756
    Number of intersected edges : 363900
Refined mesh in = 2.1 s
After refinement surface refinement iteration 5 : cells:617977  faces:1974133  points:737660
Cells per refinement level:
    0	15295
    1	37175
    2	317851
    3	247656

Surface refinement iteration 6
------------------------------

Marked for refinement due to surface intersection          : 0 cells.
Marked for refinement due to curvature/regions             : 7 cells.
Determined cells to refine in = 1.71 s
Selected for refinement : 8 cells (out of 617977)
Edge intersection testing:
    Number of edges             : 1974313
    Number of edges to retest   : 742
    Number of intersected edges : 363911
Refined mesh in = 2.11 s
After refinement surface refinement iteration 6 : cells:618033  faces:1974313  points:737725
Cells per refinement level:
    0	15295
    1	37174
    2	317852
    3	247712

Surface refinement iteration 7
------------------------------

Marked for refinement due to surface intersection          : 0 cells.
Marked for refinement due to curvature/regions             : 0 cells.
Determined cells to refine in = 1.69 s
Selected for refinement : 0 cells (out of 618033)
Stopping refining since too few cells selected.


Removing mesh beyond surface intersections
------------------------------------------

Found point (0.974432 1.40534 1.24221) in global region 2 out of 12121 regions.
Keeping all cells in region 2 containing point (0.974432 1.40534 1.24221)
Selected for keeping : 572932 cells.
Edge intersection testing:
    Number of edges             : 1838545
    Number of edges to retest   : 42720
    Number of intersected edges : 363803

Shell refinement iteration 0
----------------------------

Marked for refinement due to distance to explicit features : 0 cells.
Marked for refinement due to refinement shells             : 0 cells.
Determined cells to refine in = 10.54 s
Selected for internal refinement : 34813 cells (out of 572932)
Edge intersection testing:
    Number of edges             : 2567530
    Number of edges to retest   : 1608763
    Number of intersected edges : 406546
Refined mesh in = 5.76 s
After refinement shell refinement iteration 0 : cells:816623  faces:2567530  points:934981
Cells per refinement level:
    0	6528
    1	33554
    2	366759
    3	409782

Shell refinement iteration 1
----------------------------

Marked for refinement due to distance to explicit features : 0 cells.
Marked for refinement due to refinement shells             : 0 cells.
Determined cells to refine in = 0.86 s
Selected for internal refinement : 8859 cells (out of 816623)
Edge intersection testing:
    Number of edges             : 2758630
    Number of edges to retest   : 534272
    Number of intersected edges : 429855
Refined mesh in = 4.05 s
After refinement shell refinement iteration 1 : cells:878636  faces:2758630  points:1001962
Cells per refinement level:
    0	5497
    1	40972
    2	366401
    3	465766

Shell refinement iteration 2
----------------------------

Marked for refinement due to distance to explicit features : 0 cells.
Marked for refinement due to refinement shells             : 0 cells.
Determined cells to refine in = 0.9 s
Selected for internal refinement : 224 cells (out of 878636)
Edge intersection testing:
    Number of edges             : 2763334
    Number of edges to retest   : 19498
    Number of intersected edges : 430280
Refined mesh in = 2.99 s
After refinement shell refinement iteration 2 : cells:880204  faces:2763334  points:1003515
Cells per refinement level:
    0	5488
    1	40979
    2	366771
    3	466966

Shell refinement iteration 3
----------------------------

Marked for refinement due to distance to explicit features : 0 cells.
Marked for refinement due to refinement shells             : 0 cells.
Determined cells to refine in = 0.92 s
Selected for internal refinement : 15 cells (out of 880204)
Edge intersection testing:
    Number of edges             : 2763661
    Number of edges to retest   : 1247
    Number of intersected edges : 430289
Refined mesh in = 2.9 s
After refinement shell refinement iteration 3 : cells:880309  faces:2763661  points:1003633
Cells per refinement level:
    0	5479
    1	41051
    2	366765
    3	467014

Shell refinement iteration 4
----------------------------

Marked for refinement due to distance to explicit features : 0 cells.
Marked for refinement due to refinement shells             : 0 cells.
Determined cells to refine in = 0.9 s
Selected for internal refinement : 0 cells (out of 880309)
Stopping refining since too few cells selected.


Dangling coarse cells refinement iteration 0
--------------------------------------------

Determined cells to refine in = 0.03 s
Selected for refinement : 335 cells (out of 880309)
Edge intersection testing:
    Number of edges             : 2768686
    Number of edges to retest   : 39482
    Number of intersected edges : 430512
Refined mesh in = 2.94 s
After refinement coarse cell refinement iteration 0 : cells:882654  faces:2768686  points:1004303
Cells per refinement level:
    0	5479
    1	41020
    2	366709
    3	469446

Dangling coarse cells refinement iteration 1
--------------------------------------------

Determined cells to refine in = 0.04 s
Selected for refinement : 1 cells (out of 882654)
Edge intersection testing:
    Number of edges             : 2768701
    Number of edges to retest   : 121
    Number of intersected edges : 430515
Refined mesh in = 2.88 s
After refinement coarse cell refinement iteration 1 : cells:882661  faces:2768701  points:1004305
Cells per refinement level:
    0	5479
    1	41020
    2	366708
    3	469454

Dangling coarse cells refinement iteration 2
--------------------------------------------

Determined cells to refine in = 0.03 s
Selected for refinement : 0 cells (out of 882661)
Stopping refining since too few cells selected.


Dangling coarse cells refinement iteration 0
--------------------------------------------

Determined cells to refine in = 0.03 s
Selected for refinement : 2 cells (out of 882661)
Edge intersection testing:
    Number of edges             : 2768725
    Number of edges to retest   : 260
    Number of intersected edges : 430515
Refined mesh in = 2.88 s
After refinement coarse cell refinement iteration 0 : cells:882675  faces:2768725  points:1004307
Cells per refinement level:
    0	5479
    1	41018
    2	366724
    3	469454

Dangling coarse cells refinement iteration 1
--------------------------------------------

Determined cells to refine in = 0.03 s
Selected for refinement : 0 cells (out of 882675)
Stopping refining since too few cells selected.


Splitting mesh at surface intersections
---------------------------------------

Introducing baffles for 430515 faces that are intersected by the surface.

Edge intersection testing:
    Number of edges             : 3183597
    Number of edges to retest   : 1904650
    Number of intersected edges : 837000
Created baffles in = 7.16 s


After introducing baffles : cells:882675  faces:3183597  points:1004307
Cells per refinement level:
    0	5479
    1	41018
    2	366724
    3	469454

Introducing baffles to block off problem cells
----------------------------------------------

markFacesOnProblemCells : marked 233495 additional internal faces to be converted into baffles.
Analyzed problem cells in = 2.55 s


Introducing baffles to delete problem cells.

Edge intersection testing:
    Number of edges             : 3417092
    Number of edges to retest   : 960817
    Number of intersected edges : 845577
Created baffles in = 4.79 s


After introducing baffles : cells:882675  faces:3417092  points:1004307
Cells per refinement level:
    0	5479
    1	41018
    2	366724
    3	469454

Remove unreachable sections of mesh
-----------------------------------

Keeping all cells in region 53 containing point (0.974432 1.40534 1.24221)
Selected for keeping : 688204 cells.
Edge intersection testing:
    Number of edges             : 2351207
    Number of edges to retest   : 0
    Number of intersected edges : 387000
Split mesh in = 12.14 s


After subsetting : cells:688204  faces:2351207  points:892413
Cells per refinement level:
    0	5479
    1	41018
    2	262869
    3	378838

Introducing zones for interfaces
--------------------------------

Surface : AMI
    faceZone : innerAMI
    cellZone : innerAMI
Found 1 closed, named surfaces. Assigning cells in/outside these surfaces to the corresponding cellZone.

Walking from location-in-mesh (0.974432 1.40534 1.24221) to assign cellZones - crossing a faceZone face changes cellZone

Found point (0.974432 1.40534 1.24221) in global region 1 out of 2 regions.
Only keeping zone faces inbetween different cellZones.

CellZones:
    innerAMI	size:461475

FaceZones:
    innerAMI	size:5245

Edge intersection testing:
    Number of edges             : 2351207
    Number of edges to retest   : 0
    Number of intersected edges : 387000

Handling cells with snap problems
---------------------------------

Introducing baffles for 387000 faces that are intersected by the surface.

Edge intersection testing:
    Number of edges             : 2351207
    Number of edges to retest   : 1086681
    Number of intersected edges : 387000
Created baffles in = 16.46 s


After introducing baffles : cells:688204  faces:2351207  points:892413
Cells per refinement level:
    0	5479
    1	41018
    2	262869
    3	378838

Introducing baffles to block off problem cells
----------------------------------------------

markFacesOnProblemCells : marked 4960 additional internal faces to be converted into baffles.
Analyzed problem cells in = 1.96 s


Introducing baffles to delete problem cells.

Edge intersection testing:
    Number of edges             : 2356167
    Number of edges to retest   : 24373
    Number of intersected edges : 387001
Created baffles in = 2.13 s


After introducing baffles : cells:688204  faces:2356167  points:892413
Cells per refinement level:
    0	5479
    1	41018
    2	262869
    3	378838

Remove unreachable sections of mesh
-----------------------------------

Keeping all cells in region 0 containing point (0.974432 1.40534 1.24221)
Selected for keeping : 685953 cells.
Edge intersection testing:
    Number of edges             : 2342560
    Number of edges to retest   : 0
    Number of intersected edges : 383294
Split mesh in = 9.34 s


After subsetting : cells:685953  faces:2342560  points:889862
Cells per refinement level:
    0	5479
    1	41018
    2	262666
    3	376790

Merge free-standing baffles
---------------------------

freeStandingBaffles : detected 6733 free-standing baffles out of 41106

freeStandingBaffles : detected 36 planar (within 30 degrees) free-standing baffles out of 6733

Detected free-standing baffles : 36
Edge intersection testing:
    Number of edges             : 2342524
    Number of edges to retest   : 36
    Number of intersected edges : 383258

Introducing baffles to block off problem cells
----------------------------------------------

markFacesOnProblemCells : marked 3006 additional internal faces to be converted into baffles.
Analyzed problem cells in = 4.85 s


Introducing baffles to delete problem cells.

Edge intersection testing:
    Number of edges             : 2345530
    Number of edges to retest   : 14948
    Number of intersected edges : 383260
Created baffles in = 2 s


After introducing baffles : cells:685953  faces:2345530  points:889862
Cells per refinement level:
    0	5479
    1	41018
    2	262666
    3	376790
Merged free-standing baffles in = 0.01 s


dupNonManifoldPoints : Found : 83965 non-manifold points (out of 889862)
Edge intersection testing:
    Number of edges             : 2345530
    Number of edges to retest   : 0
    Number of intersected edges : 383260
Detected unsplittable baffles : 18
Edge intersection testing:
    Number of edges             : 2345512
    Number of edges to retest   : 18
    Number of intersected edges : 383242
Keeping all cells in region 0 containing point (0.974432 1.40534 1.24221)
Selected for keeping : 684617 cells.
Edge intersection testing:
    Number of edges             : 2337478
    Number of edges to retest   : 0
    Number of intersected edges : 381115
Merged free-standing baffles in = 16.56 s.

Merge refined boundary faces
----------------------------

Merging 2397 sets of faces.

Edge intersection testing:
    Number of edges             : 2332641
    Number of edges to retest   : 19831
    Number of intersected edges : 376410

Undo iteration 0
----------------
Checking faces in error :
    non-orthogonality > 65  degrees                        : 0
    faces with face pyramid volume < 1e-13                 : 0
    faces with face-decomposition tet quality < 1e-15      : 0
    faces with concavity > 80  degrees                     : 0
    faces with skewness > 4   (internal) or 20  (boundary) : 0
    faces with interpolation weights (0..1)  < 0.02        : 0
    faces with volume ratio of neighbour cells < 0.01      : 0
    faces with face twist < 0.02                           : 0
    faces on cells with determinant < 0.001                : 0

Merging all points on surface that
- are used by only two boundary faces and
- make an angle with a cosine of more than 0.707107.

Removing 3731 straight edge points ...

Edge intersection testing:
    Number of edges             : 2332641
    Number of edges to retest   : 23413
    Number of intersected edges : 376410

Undo iteration 0
----------------
Checking faces in error :
    non-orthogonality > 65  degrees                        : 0
    faces with face pyramid volume < 1e-13                 : 0
    faces with face-decomposition tet quality < 1e-15      : 0
    faces with concavity > 80  degrees                     : 0
    faces with skewness > 4   (internal) or 20  (boundary) : 0
    faces with interpolation weights (0..1)  < 0.02        : 0
    faces with volume ratio of neighbour cells < 0.01      : 0
    faces with face twist < 0.02                           : 0
    faces on cells with determinant < 0.001                : 0
Refined mesh : cells:684617  faces:2332641  points:964024
Cells per refinement level:
    0	5479
    1	41018
    2	262584
    3	375536
Writing mesh to time constant
Wrote mesh in = 13.72 s.
Mesh refined in = 159.01 s.

Morphing phase
--------------

Converting zoned faces into baffles ...
For zone innerAMI found patches AMI and AMI_slave
Edge intersection testing:
    Number of edges             : 2337886
    Number of edges to retest   : 42350
    Number of intersected edges : 381655
Created 5245 baffles in = 2.12 s


Surface : AMI
    faces to become baffle : 10490
    points to duplicate    : 5440
dupNonManifoldPoints : Found : 5438 non-manifold points (out of 964024)
Edge intersection testing:
    Number of edges             : 2337886
    Number of edges to retest   : 0
    Number of intersected edges : 381655

Snapping to features in 5 iterations ...
Constructing mesh displacer ...
Using mesh parameters 
{
    maxNonOrtho     65;
    maxBoundarySkewness 20;
    maxInternalSkewness 4;
    maxConcave      80;
    minVol          1e-13;
    minTetQuality   1e-15;
    minArea         -1;
    minTwist        0.02;
    minDeterminant  0.001;
    minFaceWeight   0.02;
    minVolRatio     0.01;
    minTriangleTwist -1;
    relaxed
    {
        maxNonOrtho     75;
    }
    nSmoothScale    4;
    errorReduction  0.75;
}


Checking initial mesh ...
Checking faces in error :
    non-orthogonality > 65  degrees                        : 0
    faces with face pyramid volume < 1e-13                 : 0
    faces with face-decomposition tet quality < 1e-15      : 0
    faces with concavity > 80  degrees                     : 0
    faces with skewness > 4   (internal) or 20  (boundary) : 0
    faces with interpolation weights (0..1)  < 0.02        : 0
    faces with volume ratio of neighbour cells < 0.01      : 0
    faces with face twist < 0.02                           : 0
    faces on cells with determinant < 0.001                : 0
Detected 0 illegal faces (concave, zero area or negative cell pyramid volume)
Checked initial mesh in = 8.09 s


Smoothing patch points ...
Smoothing iteration 0
Found 168910 non-manifold point(s).

Scaling iteration 0
Moving mesh using displacement scaling : min:1  max:1
Checking faces in error :
    non-orthogonality > 65  degrees                        : 0
    faces with face pyramid volume < 1e-13                 : 0
    faces with face-decomposition tet quality < 1e-15      : 555
    faces with concavity > 80  degrees                     : 47
    faces with skewness > 4   (internal) or 20  (boundary) : 0
    faces with interpolation weights (0..1)  < 0.02        : 0
    faces with volume ratio of neighbour cells < 0.01      : 0
    faces with face twist < 0.02                           : 56
    faces on cells with determinant < 0.001                : 0

Scaling iteration 1
Moving mesh using displacement scaling : min:0.75  max:1
Checking faces in error :
    non-orthogonality > 65  degrees                        : 0
    faces with face pyramid volume < 1e-13                 : 0
    faces with face-decomposition tet quality < 1e-15      : 1
    faces with concavity > 80  degrees                     : 1
    faces with skewness > 4   (internal) or 20  (boundary) : 0
    faces with interpolation weights (0..1)  < 0.02        : 0
    faces with volume ratio of neighbour cells < 0.01      : 0
    faces with face twist < 0.02                           : 0
    faces on cells with determinant < 0.001                : 0

Scaling iteration 2
Moving mesh using displacement scaling : min:0.5625  max:1
Checking faces in error :
    non-orthogonality > 65  degrees                        : 0
    faces with face pyramid volume < 1e-13                 : 0
    faces with face-decomposition tet quality < 1e-15      : 0
    faces with concavity > 80  degrees                     : 0
    faces with skewness > 4   (internal) or 20  (boundary) : 0
    faces with interpolation weights (0..1)  < 0.02        : 0
    faces with volume ratio of neighbour cells < 0.01      : 0
    faces with face twist < 0.02                           : 0
    faces on cells with determinant < 0.001                : 0
Successfully moved mesh

Smoothing iteration 1
Found 0 non-manifold point(s).

Scaling iteration 0
Moving mesh using displacement scaling : min:1  max:1
Checking faces in error :
    non-orthogonality > 65  degrees                        : 0
    faces with face pyramid volume < 1e-13                 : 0
    faces with face-decomposition tet quality < 1e-15      : 7
    faces with concavity > 80  degrees                     : 3
    faces with skewness > 4   (internal) or 20  (boundary) : 0
    faces with interpolation weights (0..1)  < 0.02        : 0
    faces with volume ratio of neighbour cells < 0.01      : 0
    faces with face twist < 0.02                           : 0
    faces on cells with determinant < 0.001                : 0

Scaling iteration 1
Moving mesh using displacement scaling : min:0.75  max:1
Checking faces in error :
    non-orthogonality > 65  degrees                        : 0
    faces with face pyramid volume < 1e-13                 : 0
    faces with face-decomposition tet quality < 1e-15      : 5
    faces with concavity > 80  degrees                     : 1
    faces with skewness > 4   (internal) or 20  (boundary) : 0
    faces with interpolation weights (0..1)  < 0.02        : 0
    faces with volume ratio of neighbour cells < 0.01      : 0
    faces with face twist < 0.02                           : 0
    faces on cells with determinant < 0.001                : 0

Scaling iteration 2
Moving mesh using displacement scaling : min:0.5625  max:1
Checking faces in error :
    non-orthogonality > 65  degrees                        : 0
    faces with face pyramid volume < 1e-13                 : 0
    faces with face-decomposition tet quality < 1e-15      : 3
    faces with concavity > 80  degrees                     : 0
    faces with skewness > 4   (internal) or 20  (boundary) : 0
    faces with interpolation weights (0..1)  < 0.02        : 0
    faces with volume ratio of neighbour cells < 0.01      : 0
    faces with face twist < 0.02                           : 0
    faces on cells with determinant < 0.001                : 0

Scaling iteration 3
Moving mesh using displacement scaling : min:0.421875  max:1
Checking faces in error :
    non-orthogonality > 65  degrees                        : 0
    faces with face pyramid volume < 1e-13                 : 0
    faces with face-decomposition tet quality < 1e-15      : 3
    faces with concavity > 80  degrees                     : 0
    faces with skewness > 4   (internal) or 20  (boundary) : 0
    faces with interpolation weights (0..1)  < 0.02        : 0
    faces with volume ratio of neighbour cells < 0.01      : 0
    faces with face twist < 0.02                           : 0
    faces on cells with determinant < 0.001                : 0

Scaling iteration 4
Moving mesh using displacement scaling : min:0.316406  max:1
Checking faces in error :
    non-orthogonality > 65  degrees                        : 0
    faces with face pyramid volume < 1e-13                 : 0
    faces with face-decomposition tet quality < 1e-15      : 2
    faces with concavity > 80  degrees                     : 0
    faces with skewness > 4   (internal) or 20  (boundary) : 0
    faces with interpolation weights (0..1)  < 0.02        : 0
    faces with volume ratio of neighbour cells < 0.01      : 0
    faces with face twist < 0.02                           : 0
    faces on cells with determinant < 0.001                : 0

Scaling iteration 5
Displacement scaling for error reduction set to 0.
Moving mesh using displacement scaling : min:0.237305  max:1
Checking faces in error :
    non-orthogonality > 65  degrees                        : 0
    faces with face pyramid volume < 1e-13                 : 0
    faces with face-decomposition tet quality < 1e-15      : 2
    faces with concavity > 80  degrees                     : 0
    faces with skewness > 4   (internal) or 20  (boundary) : 0
    faces with interpolation weights (0..1)  < 0.02        : 0
    faces with volume ratio of neighbour cells < 0.01      : 0
    faces with face twist < 0.02                           : 0
    faces on cells with determinant < 0.001                : 0

Scaling iteration 6
Moving mesh using displacement scaling : min:0  max:1
Checking faces in error :
    non-orthogonality > 65  degrees                        : 0
    faces with face pyramid volume < 1e-13                 : 0
    faces with face-decomposition tet quality < 1e-15      : 0
    faces with concavity > 80  degrees                     : 0
    faces with skewness > 4   (internal) or 20  (boundary) : 0
    faces with interpolation weights (0..1)  < 0.02        : 0
    faces with volume ratio of neighbour cells < 0.01      : 0
    faces with face twist < 0.02                           : 0
    faces on cells with determinant < 0.001                : 0
Successfully moved mesh

Smoothing iteration 2
Found 0 non-manifold point(s).

Scaling iteration 0
Moving mesh using displacement scaling : min:1  max:1
Checking faces in error :
    non-orthogonality > 65  degrees                        : 0
    faces with face pyramid volume < 1e-13                 : 0
    faces with face-decomposition tet quality < 1e-15      : 13
    faces with concavity > 80  degrees                     : 3
    faces with skewness > 4   (internal) or 20  (boundary) : 0
    faces with interpolation weights (0..1)  < 0.02        : 0
    faces with volume ratio of neighbour cells < 0.01      : 0
    faces with face twist < 0.02                           : 0
    faces on cells with determinant < 0.001                : 0

Scaling iteration 1
Moving mesh using displacement scaling : min:0.75  max:1
Checking faces in error :
    non-orthogonality > 65  degrees                        : 0
    faces with face pyramid volume < 1e-13                 : 0
    faces with face-decomposition tet quality < 1e-15      : 9
    faces with concavity > 80  degrees                     : 3
    faces with skewness > 4   (internal) or 20  (boundary) : 0
    faces with interpolation weights (0..1)  < 0.02        : 0
    faces with volume ratio of neighbour cells < 0.01      : 0
    faces with face twist < 0.02                           : 0
    faces on cells with determinant < 0.001                : 0

Scaling iteration 2
Moving mesh using displacement scaling : min:0.5625  max:1
Checking faces in error :
    non-orthogonality > 65  degrees                        : 0
    faces with face pyramid volume < 1e-13                 : 0
    faces with face-decomposition tet quality < 1e-15      : 8
    faces with concavity > 80  degrees                     : 3
    faces with skewness > 4   (internal) or 20  (boundary) : 0
    faces with interpolation weights (0..1)  < 0.02        : 0
    faces with volume ratio of neighbour cells < 0.01      : 0
    faces with face twist < 0.02                           : 0
    faces on cells with determinant < 0.001                : 0

Scaling iteration 3
Moving mesh using displacement scaling : min:0.421875  max:1
Checking faces in error :
    non-orthogonality > 65  degrees                        : 0
    faces with face pyramid volume < 1e-13                 : 0
    faces with face-decomposition tet quality < 1e-15      : 6
    faces with concavity > 80  degrees                     : 3
    faces with skewness > 4   (internal) or 20  (boundary) : 0
    faces with interpolation weights (0..1)  < 0.02        : 0
    faces with volume ratio of neighbour cells < 0.01      : 0
    faces with face twist < 0.02                           : 0
    faces on cells with determinant < 0.001                : 0

Scaling iteration 4
Moving mesh using displacement scaling : min:0.316406  max:1
Checking faces in error :
    non-orthogonality > 65  degrees                        : 0
    faces with face pyramid volume < 1e-13                 : 0
    faces with face-decomposition tet quality < 1e-15      : 5
    faces with concavity > 80  degrees                     : 3
    faces with skewness > 4   (internal) or 20  (boundary) : 0
    faces with interpolation weights (0..1)  < 0.02        : 0
    faces with volume ratio of neighbour cells < 0.01      : 0
    faces with face twist < 0.02                           : 0
    faces on cells with determinant < 0.001                : 0

Scaling iteration 5
Displacement scaling for error reduction set to 0.
Moving mesh using displacement scaling : min:0.237305  max:1
Checking faces in error :
    non-orthogonality > 65  degrees                        : 0
    faces with face pyramid volume < 1e-13                 : 0
    faces with face-decomposition tet quality < 1e-15      : 4
    faces with concavity > 80  degrees                     : 0
    faces with skewness > 4   (internal) or 20  (boundary) : 0
    faces with interpolation weights (0..1)  < 0.02        : 0
    faces with volume ratio of neighbour cells < 0.01      : 0
    faces with face twist < 0.02                           : 0
    faces on cells with determinant < 0.001                : 0

Scaling iteration 6
Moving mesh using displacement scaling : min:0  max:1
Checking faces in error :
    non-orthogonality > 65  degrees                        : 0
    faces with face pyramid volume < 1e-13                 : 0
    faces with face-decomposition tet quality < 1e-15      : 0
    faces with concavity > 80  degrees                     : 0
    faces with skewness > 4   (internal) or 20  (boundary) : 0
    faces with interpolation weights (0..1)  < 0.02        : 0
    faces with volume ratio of neighbour cells < 0.01      : 0
    faces with face twist < 0.02                           : 0
    faces on cells with determinant < 0.001                : 0
Successfully moved mesh

Patch points smoothed in = 36.98 s



Morph iteration 0
-----------------
Calculating patchDisplacement as distance to nearest surface point ...
--> FOAM Warning : 
    From function static Foam::vectorField Foam::snappySnapDriver::calcNearestSurface(const Foam::meshRefinement&, const scalarField&, const indirectPrimitivePatch&, Foam::pointField&, Foam::vectorField&)
    in file snappyHexMeshDriver/snappySnapDriver.C at line 1756
    For point:324 coordinate:(1.16025 0.978471 1.32436) did not find any surface within:0.00625 metre.
--> FOAM Warning : 
    From function static Foam::vectorField Foam::snappySnapDriver::calcNearestSurface(const Foam::meshRefinement&, const scalarField&, const indirectPrimitivePatch&, Foam::pointField&, Foam::vectorField&)
    in file snappyHexMeshDriver/snappySnapDriver.C at line 1756
    For point:1590 coordinate:(1.06679 1.32158 1.25316) did not find any surface within:0.00625 metre.
--> FOAM Warning : 
    From function static Foam::vectorField Foam::snappySnapDriver::calcNearestSurface(const Foam::meshRefinement&, const scalarField&, const indirectPrimitivePatch&, Foam::pointField&, Foam::vectorField&)
    in file snappyHexMeshDriver/snappySnapDriver.C at line 1756
    For point:1823 coordinate:(1.06668 1.24556 0.986918) did not find any surface within:0.00625 metre.
--> FOAM Warning : 
    From function static Foam::vectorField Foam::snappySnapDriver::calcNearestSurface(const Foam::meshRefinement&, const scalarField&, const indirectPrimitivePatch&, Foam::pointField&, Foam::vectorField&)
    in file snappyHexMeshDriver/snappySnapDriver.C at line 1756
    For point:1824 coordinate:(1.06681 1.2469 0.9909) did not find any surface within:0.00625 metre.
--> FOAM Warning : 
    From function static Foam::vectorField Foam::snappySnapDriver::calcNearestSurface(const Foam::meshRefinement&, const scalarField&, const indirectPrimitivePatch&, Foam::pointField&, Foam::vectorField&)
    in file snappyHexMeshDriver/snappySnapDriver.C at line 1756
    For point:2390 coordinate:(1.16775 1.25085 1.33743) did not find any surface within:0.00625 metre.
--> FOAM Warning : 
    From function static Foam::vectorField Foam::snappySnapDriver::calcNearestSurface(const Foam::meshRefinement&, const scalarField&, const indirectPrimitivePatch&, Foam::pointField&, Foam::vectorField&)
    in file snappyHexMeshDriver/snappySnapDriver.C at line 1756
    For point:2391 coordinate:(1.16552 1.24779 1.33417) did not find any surface within:0.00625 metre.
--> FOAM Warning : 
    From function static Foam::vectorField Foam::snappySnapDriver::calcNearestSurface(const Foam::meshRefinement&, const scalarField&, const indirectPrimitivePatch&, Foam::pointField&, Foam::vectorField&)
    in file snappyHexMeshDriver/snappySnapDriver.C at line 1756
    For point:2435 coordinate:(1.21751 0.931384 1.37438) did not find any surface within:0.00625 metre.
--> FOAM Warning : 
    From function static Foam::vectorField Foam::snappySnapDriver::calcNearestSurface(const Foam::meshRefinement&, const scalarField&, const indirectPrimitivePatch&, Foam::pointField&, Foam::vectorField&)
    in file snappyHexMeshDriver/snappySnapDriver.C at line 1756
    For point:2610 coordinate:(1.16041 0.99723 1.29937) did not find any surface within:0.00625 metre.
--> FOAM Warning : 
    From function static Foam::vectorField Foam::snappySnapDriver::calcNearestSurface(const Foam::meshRefinement&, const scalarField&, const indirectPrimitivePatch&, Foam::pointField&, Foam::vectorField&)
    in file snappyHexMeshDriver/snappySnapDriver.C at line 1756
    For point:2629 coordinate:(1.16053 0.992628 1.3053) did not find any surface within:0.00625 metre.
--> FOAM Warning : 
    From function static Foam::vectorField Foam::snappySnapDriver::calcNearestSurface(const Foam::meshRefinement&, const scalarField&, const indirectPrimitivePatch&, Foam::pointField&, Foam::vectorField&)
    in file snappyHexMeshDriver/snappySnapDriver.C at line 1756
    For point:2964 coordinate:(1.06671 1.19398 0.973213) did not find any surface within:0.00625 metre.
--> FOAM Warning : 
    From function static Foam::vectorField Foam::snappySnapDriver::calcNearestSurface(const Foam::meshRefinement&, const scalarField&, const indirectPrimitivePatch&, Foam::pointField&, Foam::vectorField&)
    in file snappyHexMeshDriver/snappySnapDriver.C at line 1756
    For point:3021 coordinate:(1.06664 1.03049 1.02916) did not find any surface within:0.00625 metre.
--> FOAM Warning : 
    From function static Foam::vectorField Foam::snappySnapDriver::calcNearestSurface(const Foam::meshRefinement&, const scalarField&, const indirectPrimitivePatch&, Foam::pointField&, Foam::vectorField&)
    in file snappyHexMeshDriver/snappySnapDriver.C at line 1756
    For point:3545 coordinate:(1.07201 1.00624 1.05534) did not find any surface within:0.00625 metre.
--> FOAM Warning : 
    From function static Foam::vectorField Foam::snappySnapDriver::calcNearestSurface(const Foam::meshRefinement&, const scalarField&, const indirectPrimitivePatch&, Foam::pointField&, Foam::vectorField&)
    in file snappyHexMeshDriver/snappySnapDriver.C at line 1756
    For point:4649 coordinate:(1.1653 1.04598 1.2971) did not find any surface within:0.00625 metre.
--> FOAM Warning : 
    From function static Foam::vectorField Foam::snappySnapDriver::calcNearestSurface(const Foam::meshRefinement&, const scalarField&, const indirectPrimitivePatch&, Foam::pointField&, Foam::vectorField&)
    in file snappyHexMeshDriver/snappySnapDriver.C at line 1756
    For point:4665 coordinate:(1.07194 1.29989 1.28862) did not find any surface within:0.00625 metre.
--> FOAM Warning : 
    From function static Foam::vectorField Foam::snappySnapDriver::calcNearestSurface(const Foam::meshRefinement&, const scalarField&, const indirectPrimitivePatch&, Foam::pointField&, Foam::vectorField&)
    in file snappyHexMeshDriver/snappySnapDriver.C at line 1756
    For point:4815 coordinate:(1.16218 1.20805 1.33822) did not find any surface within:0.00625 metre.
--> FOAM Warning : 
    From function static Foam::vectorField Foam::snappySnapDriver::calcNearestSurface(const Foam::meshRefinement&, const scalarField&, const indirectPrimitivePatch&, Foam::pointField&, Foam::vectorField&)
    in file snappyHexMeshDriver/snappySnapDriver.C at line 1756
    For point:6904 coordinate:(1.04183 0.984326 0.996891) did not find any surface within:0.00625 metre.
--> FOAM Warning : 
    From function static Foam::vectorField Foam::snappySnapDriver::calcNearestSurface(const Foam::meshRefinement&, const scalarField&, const indirectPrimitivePatch&, Foam::pointField&, Foam::vectorField&)
    in file snappyHexMeshDriver/snappySnapDriver.C at line 1756
    For point:7629 coordinate:(1.16616 1.03682 1.0217) did not find any surface within:0.00625 metre.
--> FOAM Warning : 
    From function static Foam::vectorField Foam::snappySnapDriver::calcNearestSurface(const Foam::meshRefinement&, const scalarField&, const indirectPrimitivePatch&, Foam::pointField&, Foam::vectorField&)
    in file snappyHexMeshDriver/snappySnapDriver.C at line 1756
    For point:7788 coordinate:(1.1678 1.30929 1.04284) did not find any surface within:0.00625 metre.
--> FOAM Warning : 
    From function static Foam::vectorField Foam::snappySnapDriver::calcNearestSurface(const Foam::meshRefinement&, const scalarField&, const indirectPrimitivePatch&, Foam::pointField&, Foam::vectorField&)
    in file snappyHexMeshDriver/snappySnapDriver.C at line 1756
    For point:8479 coordinate:(1.16017 0.924343 1.23478) did not find any surface within:0.00625 metre.
--> FOAM Warning : 
    From function static Foam::vectorField Foam::snappySnapDriver::calcNearestSurface(const Foam::meshRefinement&, const scalarField&, const indirectPrimitivePatch&, Foam::pointField&, Foam::vectorField&)
    in file snappyHexMeshDriver/snappySnapDriver.C at line 1756
    For point:9279 coordinate:(1.072 1.08041 1.32513) did not find any surface within:0.00625 metre.
--> FOAM Warning : 
    From function static Foam::vectorField Foam::snappySnapDriver::calcNearestSurface(const Foam::meshRefinement&, const scalarField&, const indirectPrimitivePatch&, Foam::pointField&, Foam::vectorField&)
    in file snappyHexMeshDriver/snappySnapDriver.C at line 1756
    For point:9343 coordinate:(1.16227 1.13212 1.33943) did not find any surface within:0.00625 metre.
--> FOAM Warning : 
    From function static Foam::vectorField Foam::snappySnapDriver::calcNearestSurface(const Foam::meshRefinement&, const scalarField&, const indirectPrimitivePatch&, Foam::pointField&, Foam::vectorField&)
    in file snappyHexMeshDriver/snappySnapDriver.C at line 1756
    For point:174198 coordinate:(1.21409 0.990694 1.10028) did not find any surface within:0.00625 metre.
--> FOAM Warning : 
    From function static Foam::vectorField Foam::snappySnapDriver::calcNearestSurface(const Foam::meshRefinement&, const scalarField&, const indirectPrimitivePatch&, Foam::pointField&, Foam::vectorField&)
    in file snappyHexMeshDriver/snappySnapDriver.C at line 1756
    For point:194826 coordinate:(1.06683 0.858024 0.793761) did not find any surface within:0.00625 metre.
--> FOAM Warning : 
    From function static Foam::vectorField Foam::snappySnapDriver::calcNearestSurface(const Foam::meshRefinement&, const scalarField&, const indirectPrimitivePatch&, Foam::pointField&, Foam::vectorField&)
    in file snappyHexMeshDriver/snappySnapDriver.C at line 1756
    For point:194856 coordinate:(1.06684 1.54209 1.45009) did not find any surface within:0.00625 metre.
--> FOAM Warning : 
    From function static Foam::vectorField Foam::snappySnapDriver::calcNearestSurface(const Foam::meshRefinement&, const scalarField&, const indirectPrimitivePatch&, Foam::pointField&, Foam::vectorField&)
    in file snappyHexMeshDriver/snappySnapDriver.C at line 1756
    For point:195187 coordinate:(1.06671 1.09365 0.985852) did not find any surface within:0.00625 metre.
--> FOAM Warning : 
    From function static Foam::vectorField Foam::snappySnapDriver::calcNearestSurface(const Foam::meshRefinement&, const scalarField&, const indirectPrimitivePatch&, Foam::pointField&, Foam::vectorField&)
    in file snappyHexMeshDriver/snappySnapDriver.C at line 1756
    For point:195260 coordinate:(1.16569 0.98432 1.18719) did not find any surface within:0.00625 metre.
--> FOAM Warning : 
    From function static Foam::vectorField Foam::snappySnapDriver::calcNearestSurface(const Foam::meshRefinement&, const scalarField&, const indirectPrimitivePatch&, Foam::pointField&, Foam::vectorField&)
    in file snappyHexMeshDriver/snappySnapDriver.C at line 1756
    For point:196029 coordinate:(1.16795 1.34575 1.13745) did not find any surface within:0.00625 metre.
--> FOAM Warning : 
    From function static Foam::vectorField Foam::snappySnapDriver::calcNearestSurface(const Foam::meshRefinement&, const scalarField&, const indirectPrimitivePatch&, Foam::pointField&, Foam::vectorField&)
    in file snappyHexMeshDriver/snappySnapDriver.C at line 1756
    For point:196063 coordinate:(1.16796 1.34536 1.188) did not find any surface within:0.00625 metre.
--> FOAM Warning : 
    From function static Foam::vectorField Foam::snappySnapDriver::calcNearestSurface(const Foam::meshRefinement&, const scalarField&, const indirectPrimitivePatch&, Foam::pointField&, Foam::vectorField&)
    in file snappyHexMeshDriver/snappySnapDriver.C at line 1756
    For point:196079 coordinate:(1.15979 0.915597 1.24079) did not find any surface within:0.00625 metre.
--> FOAM Warning : 
    From function static Foam::vectorField Foam::snappySnapDriver::calcNearestSurface(const Foam::meshRefinement&, const scalarField&, const indirectPrimitivePatch&, Foam::pointField&, Foam::vectorField&)
    in file snappyHexMeshDriver/snappySnapDriver.C at line 1756
    For point:196159 coordinate:(1.16771 1.28236 1.29638) did not find any surface within:0.00625 metre.
--> FOAM Warning : 
    From function static Foam::vectorField Foam::snappySnapDriver::calcNearestSurface(const Foam::meshRefinement&, const scalarField&, const indirectPrimitivePatch&, Foam::pointField&, Foam::vectorField&)
    in file snappyHexMeshDriver/snappySnapDriver.C at line 1756
    For point:196180 coordinate:(1.15948 0.984379 1.31564) did not find any surface within:0.00625 metre.
--> FOAM Warning : 
    From function static Foam::vectorField Foam::snappySnapDriver::calcNearestSurface(const Foam::meshRefinement&, const scalarField&, const indirectPrimitivePatch&, Foam::pointField&, Foam::vectorField&)
    in file snappyHexMeshDriver/snappySnapDriver.C at line 1756
    For point:196229 coordinate:(1.21986 0.928011 1.38414) did not find any surface within:0.00625 metre.
--> FOAM Warning : 
    From function static Foam::vectorField Foam::snappySnapDriver::calcNearestSurface(const Foam::meshRefinement&, const scalarField&, const indirectPrimitivePatch&, Foam::pointField&, Foam::vectorField&)
    in file snappyHexMeshDriver/snappySnapDriver.C at line 1756
    For point:196715 coordinate:(1.21778 1.30169 1.03108) did not find any surface within:0.00625 metre.
--> FOAM Warning : 
    From function static Foam::vectorField Foam::snappySnapDriver::calcNearestSurface(const Foam::meshRefinement&, const scalarField&, const indirectPrimitivePatch&, Foam::pointField&, Foam::vectorField&)
    in file snappyHexMeshDriver/snappySnapDriver.C at line 1756
    For point:196827 coordinate:(1.25525 1.00609 1.34843) did not find any surface within:0.00625 metre.
--> FOAM Warning : 
    From function static Foam::vectorField Foam::snappySnapDriver::calcNearestSurface(const Foam::meshRefinement&, const scalarField&, const indirectPrimitivePatch&, Foam::pointField&, Foam::vectorField&)
    in file snappyHexMeshDriver/snappySnapDriver.C at line 1756
    For point:196834 coordinate:(1.29011 1.33981 0.961282) did not find any surface within:0.0125 metre.
--> FOAM Warning : 
    From function static Foam::vectorField Foam::snappySnapDriver::calcNearestSurface(const Foam::meshRefinement&, const scalarField&, const indirectPrimitivePatch&, Foam::pointField&, Foam::vectorField&)
    in file snappyHexMeshDriver/snappySnapDriver.C at line 1756
    For point:196839 coordinate:(1.33968 1.40046 1.26322) did not find any surface within:0.0125 metre.
--> FOAM Warning : 
    From function static Foam::vectorField Foam::snappySnapDriver::calcNearestSurface(const Foam::meshRefinement&, const scalarField&, const indirectPrimitivePatch&, Foam::pointField&, Foam::vectorField&)
    in file snappyHexMeshDriver/snappySnapDriver.C at line 1756
    For point:196848 coordinate:(1.31394 1.38881 1.28937) did not find any surface within:0.0125 metre.
--> FOAM Warning : 
    From function static Foam::vectorField Foam::snappySnapDriver::calcNearestSurface(const Foam::meshRefinement&, const scalarField&, const indirectPrimitivePatch&, Foam::pointField&, Foam::vectorField&)
    in file snappyHexMeshDriver/snappySnapDriver.C at line 1756
    For point:196855 coordinate:(1.25292 1.00005 1.34367) did not find any surface within:0.00625 metre.
--> FOAM Warning : 
    From function static Foam::vectorField Foam::snappySnapDriver::calcNearestSurface(const Foam::meshRefinement&, const scalarField&, const indirectPrimitivePatch&, Foam::pointField&, Foam::vectorField&)
    in file snappyHexMeshDriver/snappySnapDriver.C at line 1756
    For point:196856 coordinate:(1.25306 1.00598 1.34347) did not find any surface within:0.00625 metre.
--> FOAM Warning : 
    From function static Foam::vectorField Foam::snappySnapDriver::calcNearestSurface(const Foam::meshRefinement&, const scalarField&, const indirectPrimitivePatch&, Foam::pointField&, Foam::vectorField&)
    in file snappyHexMeshDriver/snappySnapDriver.C at line 1756
    For point:196858 coordinate:(1.30218 0.997725 1.36373) did not find any surface within:0.0125 metre.
--> FOAM Warning : 
    From function static Foam::vectorField Foam::snappySnapDriver::calcNearestSurface(const Foam::meshRefinement&, const scalarField&, const indirectPrimitivePatch&, Foam::pointField&, Foam::vectorField&)
    in file snappyHexMeshDriver/snappySnapDriver.C at line 1756
    For point:196870 coordinate:(1.31354 0.973716 1.32687) did not find any surface within:0.0125 metre.
--> FOAM Warning : 
    From function static Foam::vectorField Foam::snappySnapDriver::calcNearestSurface(const Foam::meshRefinement&, const scalarField&, const indirectPrimitivePatch&, Foam::pointField&, Foam::vectorField&)
    in file snappyHexMeshDriver/snappySnapDriver.C at line 1756
    For point:196900 coordinate:(1.26425 0.97395 0.982841) did not find any surface within:0.0125 metre.
--> FOAM Warning : 
    From function static Foam::vectorField Foam::snappySnapDriver::calcNearestSurface(const Foam::meshRefinement&, const scalarField&, const indirectPrimitivePatch&, Foam::pointField&, Foam::vectorField&)
    in file snappyHexMeshDriver/snappySnapDriver.C at line 1756
    For point:196910 coordinate:(1.31378 0.968924 0.980872) did not find any surface within:0.0125 metre.
--> FOAM Warning : 
    From function static Foam::vectorField Foam::snappySnapDriver::calcNearestSurface(const Foam::meshRefinement&, const scalarField&, const indirectPrimitivePatch&, Foam::pointField&, Foam::vectorField&)
    in file snappyHexMeshDriver/snappySnapDriver.C at line 1756
    For point:196912 coordinate:(1.3254 0.96031 0.986271) did not find any surface within:0.0125 metre.
--> FOAM Warning : 
    From function static Foam::vectorField Foam::snappySnapDriver::calcNearestSurface(const Foam::meshRefinement&, const scalarField&, const indirectPrimitivePatch&, Foam::pointField&, Foam::vectorField&)
    in file snappyHexMeshDriver/snappySnapDriver.C at line 1756
    For point:196922 coordinate:(1.25091 1.0571 0.980043) did not find any surface within:0.00625 metre.
--> FOAM Warning : 
    From function static Foam::vectorField Foam::snappySnapDriver::calcNearestSurface(const Foam::meshRefinement&, const scalarField&, const indirectPrimitivePatch&, Foam::pointField&, Foam::vectorField&)
    in file snappyHexMeshDriver/snappySnapDriver.C at line 1756
    For point:196924 coordinate:(1.13547 1.25074 0.971843) did not find any surface within:0.00625 metre.
--> FOAM Warning : 
    From function static Foam::vectorField Foam::snappySnapDriver::calcNearestSurface(const Foam::meshRefinement&, const scalarField&, const indirectPrimitivePatch&, Foam::pointField&, Foam::vectorField&)
    in file snappyHexMeshDriver/snappySnapDriver.C at line 1756
    For point:196925 coordinate:(1.13598 1.24751 0.971255) did not find any surface within:0.00625 metre.
--> FOAM Warning : 
    From function static Foam::vectorField Foam::snappySnapDriver::calcNearestSurface(const Foam::meshRefinement&, const scalarField&, const indirectPrimitivePatch&, Foam::pointField&, Foam::vectorField&)
    in file snappyHexMeshDriver/snappySnapDriver.C at line 1756
    For point:196926 coordinate:(1.13877 1.24716 0.971803) did not find any surface within:0.00625 metre.
--> FOAM Warning : 
    From function static Foam::vectorField Foam::snappySnapDriver::calcNearestSurface(const Foam::meshRefinement&, const scalarField&, const indirectPrimitivePatch&, Foam::pointField&, Foam::vectorField&)
    in file snappyHexMeshDriver/snappySnapDriver.C at line 1756
    For point:196927 coordinate:(1.13899 1.25079 0.973443) did not find any surface within:0.00625 metre.
--> FOAM Warning : 
    From function static Foam::vectorField Foam::snappySnapDriver::calcNearestSurface(const Foam::meshRefinement&, const scalarField&, const indirectPrimitivePatch&, Foam::pointField&, Foam::vectorField&)
    in file snappyHexMeshDriver/snappySnapDriver.C at line 1756
    For point:196928 coordinate:(1.13496 1.2466 0.968031) did not find any surface within:0.00625 metre.
--> FOAM Warning : 
    From function static Foam::vectorField Foam::snappySnapDriver::calcNearestSurface(const Foam::meshRefinement&, const scalarField&, const indirectPrimitivePatch&, Foam::pointField&, Foam::vectorField&)
    in file snappyHexMeshDriver/snappySnapDriver.C at line 1756
    For point:196933 coordinate:(1.30163 1.33108 0.955872) did not find any surface within:0.0125 metre.
--> FOAM Warning : 
    From function static Foam::vectorField Foam::snappySnapDriver::calcNearestSurface(const Foam::meshRefinement&, const scalarField&, const indirectPrimitivePatch&, Foam::pointField&, Foam::vectorField&)
    in file snappyHexMeshDriver/snappySnapDriver.C at line 1756
    For point:196940 coordinate:(1.25043 0.968835 1.02852) did not find any surface within:0.00625 metre.
--> FOAM Warning : 
    From function static Foam::vectorField Foam::snappySnapDriver::calcNearestSurface(const Foam::meshRefinement&, const scalarField&, const indirectPrimitivePatch&, Foam::pointField&, Foam::vectorField&)
    in file snappyHexMeshDriver/snappySnapDriver.C at line 1756
    For point:196941 coordinate:(1.24961 0.975689 1.02956) did not find any surface within:0.00625 metre.
--> FOAM Warning : 
    From function static Foam::vectorField Foam::snappySnapDriver::calcNearestSurface(const Foam::meshRefinement&, const scalarField&, const indirectPrimitivePatch&, Foam::pointField&, Foam::vectorField&)
    in file snappyHexMeshDriver/snappySnapDriver.C at line 1756
    For point:196953 coordinate:(1.13552 0.971761 1.17427) did not find any surface within:0.00625 metre.
--> FOAM Warning : 
    From function static Foam::vectorField Foam::snappySnapDriver::calcNearestSurface(const Foam::meshRefinement&, const scalarField&, const indirectPrimitivePatch&, Foam::pointField&, Foam::vectorField&)
    in file snappyHexMeshDriver/snappySnapDriver.C at line 1756
    For point:196955 coordinate:(1.13926 0.973315 1.16916) did not find any surface within:0.00625 metre.
--> FOAM Warning : 
    From function static Foam::vectorField Foam::snappySnapDriver::calcNearestSurface(const Foam::meshRefinement&, const scalarField&, const indirectPrimitivePatch&, Foam::pointField&, Foam::vectorField&)
    in file snappyHexMeshDriver/snappySnapDriver.C at line 1756
    For point:196957 coordinate:(1.13495 0.98003 1.26791) did not find any surface within:0.00625 metre.
--> FOAM Warning : 
    From function static Foam::vectorField Foam::snappySnapDriver::calcNearestSurface(const Foam::meshRefinement&, const scalarField&, const indirectPrimitivePatch&, Foam::pointField&, Foam::vectorField&)
    in file snappyHexMeshDriver/snappySnapDriver.C at line 1756
    For point:196964 coordinate:(1.25079 1.34966 1.28229) did not find any surface within:0.00625 metre.
--> FOAM Warning : 
    From function static Foam::vectorField Foam::snappySnapDriver::calcNearestSurface(const Foam::meshRefinement&, const scalarField&, const indirectPrimitivePatch&, Foam::pointField&, Foam::vectorField&)
    in file snappyHexMeshDriver/snappySnapDriver.C at line 1756
    For point:197016 coordinate:(1.13448 0.994092 1.01155) did not find any surface within:0.00625 metre.
--> FOAM Warning : 
    From function static Foam::vectorField Foam::snappySnapDriver::calcNearestSurface(const Foam::meshRefinement&, const scalarField&, const indirectPrimitivePatch&, Foam::pointField&, Foam::vectorField&)
    in file snappyHexMeshDriver/snappySnapDriver.C at line 1756
    For point:197019 coordinate:(1.25056 0.962564 1.02827) did not find any surface within:0.00625 metre.
--> FOAM Warning : 
    From function static Foam::vectorField Foam::snappySnapDriver::calcNearestSurface(const Foam::meshRefinement&, const scalarField&, const indirectPrimitivePatch&, Foam::pointField&, Foam::vectorField&)
    in file snappyHexMeshDriver/snappySnapDriver.C at line 1756
    For point:197021 coordinate:(1.09335 1.31814 1.01593) did not find any surface within:0.00625 metre.
--> FOAM Warning : 
    From function static Foam::vectorField Foam::snappySnapDriver::calcNearestSurface(const Foam::meshRefinement&, const scalarField&, const indirectPrimitivePatch&, Foam::pointField&, Foam::vectorField&)
    in file snappyHexMeshDriver/snappySnapDriver.C at line 1756
    For point:197024 coordinate:(1.09371 1.31205 1.01784) did not find any surface within:0.00625 metre.
--> FOAM Warning : 
    From function static Foam::vectorField Foam::snappySnapDriver::calcNearestSurface(const Foam::meshRefinement&, const scalarField&, const indirectPrimitivePatch&, Foam::pointField&, Foam::vectorField&)
    in file snappyHexMeshDriver/snappySnapDriver.C at line 1756
    For point:197025 coordinate:(1.09379 1.32457 1.01161) did not find any surface within:0.00625 metre.
--> FOAM Warning : 
    From function static Foam::vectorField Foam::snappySnapDriver::calcNearestSurface(const Foam::meshRefinement&, const scalarField&, const indirectPrimitivePatch&, Foam::pointField&, Foam::vectorField&)
    in file snappyHexMeshDriver/snappySnapDriver.C at line 1756
    For point:197033 coordinate:(1.14497 0.974491 1.16253) did not find any surface within:0.00625 metre.
--> FOAM Warning : 
    From function static Foam::vectorField Foam::snappySnapDriver::calcNearestSurface(const Foam::meshRefinement&, const scalarField&, const indirectPrimitivePatch&, Foam::pointField&, Foam::vectorField&)
    in file snappyHexMeshDriver/snappySnapDriver.C at line 1756
    For point:197034 coordinate:(1.09381 1.28838 1.32458) did not find any surface within:0.00625 metre.
--> FOAM Warning : 
    From function static Foam::vectorField Foam::snappySnapDriver::calcNearestSurface(const Foam::meshRefinement&, const scalarField&, const indirectPrimitivePatch&, Foam::pointField&, Foam::vectorField&)
    in file snappyHexMeshDriver/snappySnapDriver.C at line 1756
    For point:197039 coordinate:(1.1351 1.2866 1.31967) did not find any surface within:0.00625 metre.
--> FOAM Warning : 
    From function static Foam::vectorField Foam::snappySnapDriver::calcNearestSurface(const Foam::meshRefinement&, const scalarField&, const indirectPrimitivePatch&, Foam::pointField&, Foam::vectorField&)
    in file snappyHexMeshDriver/snappySnapDriver.C at line 1756
    For point:197059 coordinate:(1.0973 1.33629 1.00524) did not find any surface within:0.00625 metre.
--> FOAM Warning : 
    From function static Foam::vectorField Foam::snappySnapDriver::calcNearestSurface(const Foam::meshRefinement&, const scalarField&, const indirectPrimitivePatch&, Foam::pointField&, Foam::vectorField&)
    in file snappyHexMeshDriver/snappySnapDriver.C at line 1756
    For point:197063 coordinate:(1.28954 1.39447 1.05643) did not find any surface within:0.0125 metre.
--> FOAM Warning : 
    From function static Foam::vectorField Foam::snappySnapDriver::calcNearestSurface(const Foam::meshRefinement&, const scalarField&, const indirectPrimitivePatch&, Foam::pointField&, Foam::vectorField&)
    in file snappyHexMeshDriver/snappySnapDriver.C at line 1756
    For point:197071 coordinate:(1.25216 0.950063 1.15601) did not find any surface within:0.00625 metre.
--> FOAM Warning : 
    From function static Foam::vectorField Foam::snappySnapDriver::calcNearestSurface(const Foam::meshRefinement&, const scalarField&, const indirectPrimitivePatch&, Foam::pointField&, Foam::vectorField&)
    in file snappyHexMeshDriver/snappySnapDriver.C at line 1756
    For point:197072 coordinate:(1.25236 0.943801 1.15616) did not find any surface within:0.00625 metre.
--> FOAM Warning : 
    From function static Foam::vectorField Foam::snappySnapDriver::calcNearestSurface(const Foam::meshRefinement&, const scalarField&, const indirectPrimitivePatch&, Foam::pointField&, Foam::vectorField&)
    in file snappyHexMeshDriver/snappySnapDriver.C at line 1756
    For point:197076 coordinate:(1.25191 1.35091 1.28866) did not find any surface within:0.00625 metre.
--> FOAM Warning : 
    From function static Foam::vectorField Foam::snappySnapDriver::calcNearestSurface(const Foam::meshRefinement&, const scalarField&, const indirectPrimitivePatch&, Foam::pointField&, Foam::vectorField&)
    in file snappyHexMeshDriver/snappySnapDriver.C at line 1756
    For point:197077 coordinate:(1.25143 1.35623 1.28844) did not find any surface within:0.00625 metre.
--> FOAM Warning : 
    From function static Foam::vectorField Foam::snappySnapDriver::calcNearestSurface(const Foam::meshRefinement&, const scalarField&, const indirectPrimitivePatch&, Foam::pointField&, Foam::vectorField&)
    in file snappyHexMeshDriver/snappySnapDriver.C at line 1756
    For point:197086 coordinate:(1.09722 1.29476 1.3363) did not find any surface within:0.00625 metre.
--> FOAM Warning : 
    From function static Foam::vectorField Foam::snappySnapDriver::calcNearestSurface(const Foam::meshRefinement&, const scalarField&, const indirectPrimitivePatch&, Foam::pointField&, Foam::vectorField&)
    in file snappyHexMeshDriver/snappySnapDriver.C at line 1756
    For point:197092 coordinate:(1.28973 1.33884 1.35187) did not find any surface within:0.0125 metre.
--> FOAM Warning : 
    From function static Foam::vectorField Foam::snappySnapDriver::calcNearestSurface(const Foam::meshRefinement&, const scalarField&, const indirectPrimitivePatch&, Foam::pointField&, Foam::vectorField&)
    in file snappyHexMeshDriver/snappySnapDriver.C at line 1756
    For point:197139 coordinate:(1.31371 1.00642 1.3691) did not find any surface within:0.0125 metre.
--> FOAM Warning : 
    From function static Foam::vectorField Foam::snappySnapDriver::calcNearestSurface(const Foam::meshRefinement&, const scalarField&, const indirectPrimitivePatch&, Foam::pointField&, Foam::vectorField&)
    in file snappyHexMeshDriver/snappySnapDriver.C at line 1756
    For point:197141 coordinate:(1.26528 1.31451 1.36432) did not find any surface within:0.0125 metre.
--> FOAM Warning : 
    From function static Foam::vectorField Foam::snappySnapDriver::calcNearestSurface(const Foam::meshRefinement&, const scalarField&, const indirectPrimitivePatch&, Foam::pointField&, Foam::vectorField&)
    in file snappyHexMeshDriver/snappySnapDriver.C at line 1756
    For point:197155 coordinate:(1.32578 1.30618 0.943178) did not find any surface within:0.0125 metre.
--> FOAM Warning : 
    From function static Foam::vectorField Foam::snappySnapDriver::calcNearestSurface(const Foam::meshRefinement&, const scalarField&, const indirectPrimitivePatch&, Foam::pointField&, Foam::vectorField&)
    in file snappyHexMeshDriver/snappySnapDriver.C at line 1756
    For point:197192 coordinate:(1.1351 1.08217 0.974066) did not find any surface within:0.00625 metre.
--> FOAM Warning : 
    From function static Foam::vectorField Foam::snappySnapDriver::calcNearestSurface(const Foam::meshRefinement&, const scalarField&, const indirectPrimitivePatch&, Foam::pointField&, Foam::vectorField&)
    in file snappyHexMeshDriver/snappySnapDriver.C at line 1756
    For point:197193 coordinate:(1.25249 1.05656 0.974483) did not find any surface within:0.00625 metre.
--> FOAM Warning : 
    From function static Foam::vectorField Foam::snappySnapDriver::calcNearestSurface(const Foam::meshRefinement&, const scalarField&, const indirectPrimitivePatch&, Foam::pointField&, Foam::vectorField&)
    in file snappyHexMeshDriver/snappySnapDriver.C at line 1756
    For point:197195 coordinate:(1.25064 1.1072 0.973831) did not find any surface within:0.00625 metre.
--> FOAM Warning : 
    From function static Foam::vectorField Foam::snappySnapDriver::calcNearestSurface(const Foam::meshRefinement&, const scalarField&, const indirectPrimitivePatch&, Foam::pointField&, Foam::vectorField&)
    in file snappyHexMeshDriver/snappySnapDriver.C at line 1756
    For point:197198 coordinate:(1.13531 1.29678 0.956818) did not find any surface within:0.00625 metre.
--> FOAM Warning : 
    From function static Foam::vectorField Foam::snappySnapDriver::calcNearestSurface(const Foam::meshRefinement&, const scalarField&, const indirectPrimitivePatch&, Foam::pointField&, Foam::vectorField&)
    in file snappyHexMeshDriver/snappySnapDriver.C at line 1756
    For point:197199 coordinate:(1.13535 1.29765 0.952864) did not find any surface within:0.00625 metre.
--> FOAM Warning : 
    From function static Foam::vectorField Foam::snappySnapDriver::calcNearestSurface(const Foam::meshRefinement&, const scalarField&, const indirectPrimitivePatch&, Foam::pointField&, Foam::vectorField&)
    in file snappyHexMeshDriver/snappySnapDriver.C at line 1756
    For point:197203 coordinate:(1.13619 1.2952 0.963264) did not find any surface within:0.00625 metre.
--> FOAM Warning : 
    From function static Foam::vectorField Foam::snappySnapDriver::calcNearestSurface(const Foam::meshRefinement&, const scalarField&, const indirectPrimitivePatch&, Foam::pointField&, Foam::vectorField&)
    in file snappyHexMeshDriver/snappySnapDriver.C at line 1756
    For point:197213 coordinate:(1.2777 0.943201 1.04392) did not find any surface within:0.0125 metre.
--> FOAM Warning : 
    From function static Foam::vectorField Foam::snappySnapDriver::calcNearestSurface(const Foam::meshRefinement&, const scalarField&, const indirectPrimitivePatch&, Foam::pointField&, Foam::vectorField&)
    in file snappyHexMeshDriver/snappySnapDriver.C at line 1756
    For point:197221 coordinate:(1.2525 0.956416 1.02449) did not find any surface within:0.00625 metre.
--> FOAM Warning : 
    From function static Foam::vectorField Foam::snappySnapDriver::calcNearestSurface(const Foam::meshRefinement&, const scalarField&, const indirectPrimitivePatch&, Foam::pointField&, Foam::vectorField&)
    in file snappyHexMeshDriver/snappySnapDriver.C at line 1756
    For point:197223 coordinate:(1.25197 0.969072 1.02445) did not find any surface within:0.00625 metre.
--> FOAM Warning : 
    From function static Foam::vectorField Foam::snappySnapDriver::calcNearestSurface(const Foam::meshRefinement&, const scalarField&, const indirectPrimitivePatch&, Foam::pointField&, Foam::vectorField&)
    in file snappyHexMeshDriver/snappySnapDriver.C at line 1756
    For point:197235 coordinate:(1.25044 1.01936 1.00343) did not find any surface within:0.00625 metre.
--> FOAM Warning : 
    From function static Foam::vectorField Foam::snappySnapDriver::calcNearestSurface(const Foam::meshRefinement&, const scalarField&, const indirectPrimitivePatch&, Foam::pointField&, Foam::vectorField&)
    in file snappyHexMeshDriver/snappySnapDriver.C at line 1756
    For point:197236 coordinate:(1.2508 1.02546 1.00536) did not find any surface within:0.00625 metre.
--> FOAM Warning : 
    From function static Foam::vectorField Foam::snappySnapDriver::calcNearestSurface(const Foam::meshRefinement&, const scalarField&, const indirectPrimitivePatch&, Foam::pointField&, Foam::vectorField&)
    in file snappyHexMeshDriver/snappySnapDriver.C at line 1756
    For point:197241 coordinate:(1.08922 1.29476 1.02212) did not find any surface within:0.00625 metre.
--> FOAM Warning : 
    From function static Foam::vectorField Foam::snappySnapDriver::calcNearestSurface(const Foam::meshRefinement&, const scalarField&, const indirectPrimitivePatch&, Foam::pointField&, Foam::vectorField&)
    in file snappyHexMeshDriver/snappySnapDriver.C at line 1756
    For point:197257 coordinate:(1.13546 0.981939 1.05325) did not find any surface within:0.00625 metre.
--> FOAM Warning : 
    From function static Foam::vectorField Foam::snappySnapDriver::calcNearestSurface(const Foam::meshRefinement&, const scalarField&, const indirectPrimitivePatch&, Foam::pointField&, Foam::vectorField&)
    in file snappyHexMeshDriver/snappySnapDriver.C at line 1756
    For point:197258 coordinate:(1.13596 0.978239 1.05242) did not find any surface within:0.00625 metre.
--> FOAM Warning : 
    From function static Foam::vectorField Foam::snappySnapDriver::calcNearestSurface(const Foam::meshRefinement&, const scalarField&, const indirectPrimitivePatch&, Foam::pointField&, Foam::vectorField&)
    in file snappyHexMeshDriver/snappySnapDriver.C at line 1756
    For point:197266 coordinate:(1.1353 0.981165 1.09698) did not find any surface within:0.00625 metre.
--> FOAM Warning : 
    From function static Foam::vectorField Foam::snappySnapDriver::calcNearestSurface(const Foam::meshRefinement&, const scalarField&, const indirectPrimitivePatch&, Foam::pointField&, Foam::vectorField&)
    in file snappyHexMeshDriver/snappySnapDriver.C at line 1756
    For point:197271 coordinate:(1.13553 1.34476 1.09659) did not find any surface within:0.00625 metre.
--> FOAM Warning : 
    From function static Foam::vectorField Foam::snappySnapDriver::calcNearestSurface(const Foam::meshRefinement&, const scalarField&, const indirectPrimitivePatch&, Foam::pointField&, Foam::vectorField&)
    in file snappyHexMeshDriver/snappySnapDriver.C at line 1756
    For point:197272 coordinate:(1.13504 1.35061 1.0947) did not find any surface within:0.00625 metre.
--> FOAM Warning : 
    From function static Foam::vectorField Foam::snappySnapDriver::calcNearestSurface(const Foam::meshRefinement&, const scalarField&, const indirectPrimitivePatch&, Foam::pointField&, Foam::vectorField&)
    in file snappyHexMeshDriver/snappySnapDriver.C at line 1756
    For point:197283 coordinate:(1.25218 0.924943 1.168) did not find any surface within:0.00625 metre.
--> FOAM Warning : 
    From function static Foam::vectorField Foam::snappySnapDriver::calcNearestSurface(const Foam::meshRefinement&, const scalarField&, const indirectPrimitivePatch&, Foam::pointField&, Foam::vectorField&)
    in file snappyHexMeshDriver/snappySnapDriver.C at line 1756
    For point:197284 coordinate:(1.2518 0.930957 1.16793) did not find any surface within:0.00625 metre.
--> FOAM Warning : 
    From function static Foam::vectorField Foam::snappySnapDriver::calcNearestSurface(const Foam::meshRefinement&, const scalarField&, const indirectPrimitivePatch&, Foam::pointField&, Foam::vectorField&)
    in file snappyHexMeshDriver/snappySnapDriver.C at line 1756
    For point:197288 coordinate:(1.25062 0.980197 1.19276) did not find any surface within:0.00625 metre.
--> FOAM Warning : 
    From function static Foam::vectorField Foam::snappySnapDriver::calcNearestSurface(const Foam::meshRefinement&, const scalarField&, const indirectPrimitivePatch&, Foam::pointField&, Foam::vectorField&)
    in file snappyHexMeshDriver/snappySnapDriver.C at line 1756
    For point:197293 coordinate:(1.13498 0.974469 1.21801) did not find any surface within:0.00625 metre.
--> FOAM Warning : 
    From function static Foam::vectorField Foam::snappySnapDriver::calcNearestSurface(const Foam::meshRefinement&, const scalarField&, const indirectPrimitivePatch&, Foam::pointField&, Foam::vectorField&)
    in file snappyHexMeshDriver/snappySnapDriver.C at line 1756
    For point:197294 coordinate:(1.13465 0.967734 1.22422) did not find any surface within:0.00625 metre.
--> FOAM Warning : 
    From function static Foam::vectorField Foam::snappySnapDriver::calcNearestSurface(const Foam::meshRefinement&, const scalarField&, const indirectPrimitivePatch&, Foam::pointField&, Foam::vectorField&)
    in file snappyHexMeshDriver/snappySnapDriver.C at line 1756
    For point:197298 coordinate:(1.25061 0.980385 1.24269) did not find any surface within:0.00625 metre.
--> FOAM Warning : 
    From function static Foam::vectorField Foam::snappySnapDriver::calcNearestSurface(const Foam::meshRefinement&, const scalarField&, const indirectPrimitivePatch&, Foam::pointField&, Foam::vectorField&)
    in file snappyHexMeshDriver/snappySnapDriver.C at line 1756
    For point:197309 coordinate:(1.25273 0.980581 1.29337) did not find any surface within:0.00625 metre.
--> FOAM Warning : 
    From function static Foam::vectorField Foam::snappySnapDriver::calcNearestSurface(const Foam::meshRefinement&, const scalarField&, const indirectPrimitivePatch&, Foam::pointField&, Foam::vectorField&)
    in file snappyHexMeshDriver/snappySnapDriver.C at line 1756
    For point:197310 coordinate:(1.25438 0.980103 1.29862) did not find any surface within:0.00625 metre.
--> FOAM Warning : 
    From function static Foam::vectorField Foam::snappySnapDriver::calcNearestSurface(const Foam::meshRefinement&, const scalarField&, const indirectPrimitivePatch&, Foam::pointField&, Foam::vectorField&)
    in file snappyHexMeshDriver/snappySnapDriver.C at line 1756
    For point:197315 coordinate:(1.13502 1.32453 1.29465) did not find any surface within:0.00625 metre.
--> FOAM Warning : 
    From function static Foam::vectorField Foam::snappySnapDriver::calcNearestSurface(const Foam::meshRefinement&, const scalarField&, const indirectPrimitivePatch&, Foam::pointField&, Foam::vectorField&)
    in file snappyHexMeshDriver/snappySnapDriver.C at line 1756
    For point:197316 coordinate:(1.13539 1.33064 1.29657) did not find any surface within:0.00625 metre.
--> FOAM Warning : 
    From function static Foam::vectorField Foam::snappySnapDriver::calcNearestSurface(const Foam::meshRefinement&, const scalarField&, const indirectPrimitivePatch&, Foam::pointField&, Foam::vectorField&)
    in file snappyHexMeshDriver/snappySnapDriver.C at line 1756
    For point:197319 coordinate:(1.25081 1.33084 1.27589) did not find any surface within:0.00625 metre.
--> FOAM Warning : 
    From function static Foam::vectorField Foam::snappySnapDriver::calcNearestSurface(const Foam::meshRefinement&, const scalarField&, const indirectPrimitivePatch&, Foam::pointField&, Foam::vectorField&)
    in file snappyHexMeshDriver/snappySnapDriver.C at line 1756
    For point:197343 coordinate:(1.09743 1.02633 1.34432) did not find any surface within:0.00625 metre.
--> FOAM Warning : 
    From function static Foam::vectorField Foam::snappySnapDriver::calcNearestSurface(const Foam::meshRefinement&, const scalarField&, const indirectPrimitivePatch&, Foam::pointField&, Foam::vectorField&)
    in file snappyHexMeshDriver/snappySnapDriver.C at line 1756
    For point:197348 coordinate:(1.13501 1.04909 1.31829) did not find any surface within:0.00625 metre.
--> FOAM Warning : 
    From function static Foam::vectorField Foam::snappySnapDriver::calcNearestSurface(const Foam::meshRefinement&, const scalarField&, const indirectPrimitivePatch&, Foam::pointField&, Foam::vectorField&)
    in file snappyHexMeshDriver/snappySnapDriver.C at line 1756
    For point:197353 coordinate:(1.13276 1.04233 1.33919) did not find any surface within:0.00625 metre.
--> FOAM Warning : 
    From function static Foam::vectorField Foam::snappySnapDriver::calcNearestSurface(const Foam::meshRefinement&, const scalarField&, const indirectPrimitivePatch&, Foam::pointField&, Foam::vectorField&)
    in file snappyHexMeshDriver/snappySnapDriver.C at line 1756
    For point:197356 coordinate:(1.13455 1.04306 1.33099) did not find any surface within:0.00625 metre.
--> FOAM Warning : 
    From function static Foam::vectorField Foam::snappySnapDriver::calcNearestSurface(const Foam::meshRefinement&, const scalarField&, const indirectPrimitivePatch&, Foam::pointField&, Foam::vectorField&)
    in file snappyHexMeshDriver/snappySnapDriver.C at line 1756
    For point:197394 coordinate:(1.14717 0.991238 1.24129) did not find any surface within:0.00625 metre.
--> FOAM Warning : 
    From function static Foam::vectorField Foam::snappySnapDriver::calcNearestSurface(const Foam::meshRefinement&, const scalarField&, const indirectPrimitivePatch&, Foam::pointField&, Foam::vectorField&)
    in file snappyHexMeshDriver/snappySnapDriver.C at line 1756
    For point:197397 coordinate:(1.1467 0.992826 1.23718) did not find any surface within:0.00625 metre.
--> FOAM Warning : 
    From function static Foam::vectorField Foam::snappySnapDriver::calcNearestSurface(const Foam::meshRefinement&, const scalarField&, const indirectPrimitivePatch&, Foam::pointField&, Foam::vectorField&)
    in file snappyHexMeshDriver/snappySnapDriver.C at line 1756
    For point:197399 coordinate:(1.14531 0.988224 1.24387) did not find any surface within:0.00625 metre.
--> FOAM Warning : 
    From function static Foam::vectorField Foam::snappySnapDriver::calcNearestSurface(const Foam::meshRefinement&, const scalarField&, const indirectPrimitivePatch&, Foam::pointField&, Foam::vectorField&)
[...]
    in file snappyHexMeshDriver/snappySnapDriverFeature.C at line 397
    Did not find surface near face centre (1.24986 0.962161 1.02739)
--> FOAM Warning : 
    From function void Foam::snappySnapDriver::calcNearestFace(Foam::label, const indirectPrimitivePatch&, const scalarField&, Foam::vectorField&, Foam::vectorField&, Foam::labelList&, Foam::vectorField&) const
    in file snappyHexMeshDriver/snappySnapDriverFeature.C at line 397
    Did not find surface near face centre (1.25037 0.969171 1.02718)
--> FOAM Warning : 
    From function void Foam::snappySnapDriver::calcNearestFace(Foam::label, const indirectPrimitivePatch&, const scalarField&, Foam::vectorField&, Foam::vectorField&, Foam::labelList&, Foam::vectorField&) const
    in file snappyHexMeshDriver/snappySnapDriverFeature.C at line 397
    Did not find surface near face centre (1.09503 1.31977 1.00962)
--> FOAM Warning : 
    From function void Foam::snappySnapDriver::calcNearestFace(Foam::label, const indirectPrimitivePatch&, const scalarField&, Foam::vectorField&, Foam::vectorField&, Foam::labelList&, Foam::vectorField&) const
    in file snappyHexMeshDriver/snappySnapDriverFeature.C at line 397
    Did not find surface near face centre (1.09474 1.31201 1.01643)
--> FOAM Warning : 
    From function void Foam::snappySnapDriver::calcNearestFace(Foam::label, const indirectPrimitivePatch&, const scalarField&, Foam::vectorField&, Foam::vectorField&, Foam::labelList&, Foam::vectorField&) const
    in file snappyHexMeshDriver/snappySnapDriverFeature.C at line 397
    Did not find surface near face centre (1.09285 1.31876 1.01469)
--> FOAM Warning : 
    From function void Foam::snappySnapDriver::calcNearestFace(Foam::label, const indirectPrimitivePatch&, const scalarField&, Foam::vectorField&, Foam::vectorField&, Foam::labelList&, Foam::vectorField&) const
    in file snappyHexMeshDriver/snappySnapDriverFeature.C at line 397
    Did not find surface near face centre (1.09531 1.32462 1.00397)
--> FOAM Warning : 
    From function void Foam::snappySnapDriver::calcNearestFace(Foam::label, const indirectPrimitivePatch&, const scalarField&, Foam::vectorField&, Foam::vectorField&, Foam::labelList&, Foam::vectorField&) const
    in file snappyHexMeshDriver/snappySnapDriverFeature.C at line 397
    Did not find surface near face centre (1.0931 1.32561 1.00968)
--> FOAM Warning : 
    From function void Foam::snappySnapDriver::calcNearestFace(Foam::label, const indirectPrimitivePatch&, const scalarField&, Foam::vectorField&, Foam::vectorField&, Foam::labelList&, Foam::vectorField&) const
    in file snappyHexMeshDriver/snappySnapDriverFeature.C at line 397
    Did not find surface near face centre (1.13785 1.30801 1.02895)
--> FOAM Warning : 
    From function void Foam::snappySnapDriver::calcNearestFace(Foam::label, const indirectPrimitivePatch&, const scalarField&, Foam::vectorField&, Foam::vectorField&, Foam::labelList&, Foam::vectorField&) const
    in file snappyHexMeshDriver/snappySnapDriverFeature.C at line 397
    Did not find surface near face centre (1.24956 0.941349 1.16484)
--> FOAM Warning : 
    From function void Foam::snappySnapDriver::calcNearestFace(Foam::label, const indirectPrimitivePatch&, const scalarField&, Foam::vectorField&, Foam::vectorField&, Foam::labelList&, Foam::vectorField&) const
    in file snappyHexMeshDriver/snappySnapDriverFeature.C at line 397
    Did not find surface near face centre (1.25094 0.930212 1.165)
--> FOAM Warning : 
    From function void Foam::snappySnapDriver::calcNearestFace(Foam::label, const indirectPrimitivePatch&, const scalarField&, Foam::vectorField&, Foam::vectorField&, Foam::labelList&, Foam::vectorField&) const
    in file snappyHexMeshDriver/snappySnapDriverFeature.C at line 397
    Did not find surface near face centre (1.25011 0.935549 1.16533)
--> FOAM Warning : 
    From function void Foam::snappySnapDriver::calcNearestFace(Foam::label, const indirectPrimitivePatch&, const scalarField&, Foam::vectorField&, Foam::vectorField&, Foam::labelList&, Foam::vectorField&) const
    in file snappyHexMeshDriver/snappySnapDriverFeature.C at line 397
    Did not find surface near face centre (1.13425 0.979839 1.26241)
--> FOAM Warning : 
    From function void Foam::snappySnapDriver::calcNearestFace(Foam::label, const indirectPrimitivePatch&, const scalarField&, Foam::vectorField&, Foam::vectorField&, Foam::labelList&, Foam::vectorField&) const
    in file snappyHexMeshDriver/snappySnapDriverFeature.C at line 397
    Did not find surface near face centre (1.13674 0.983597 1.2628)
--> FOAM Warning : 
    From function void Foam::snappySnapDriver::calcNearestFace(Foam::label, const indirectPrimitivePatch&, const scalarField&, Foam::vectorField&, Foam::vectorField&, Foam::labelList&, Foam::vectorField&) const
    in file snappyHexMeshDriver/snappySnapDriverFeature.C at line 397
    Did not find surface near face centre (1.25106 0.984162 1.28797)
--> FOAM Warning : 
    From function void Foam::snappySnapDriver::calcNearestFace(Foam::label, const indirectPrimitivePatch&, const scalarField&, Foam::vectorField&, Foam::vectorField&, Foam::labelList&, Foam::vectorField&) const
    in file snappyHexMeshDriver/snappySnapDriverFeature.C at line 397
    Did not find surface near face centre (1.24958 1.35129 1.28402)
--> FOAM Warning : 
    From function void Foam::snappySnapDriver::calcNearestFace(Foam::label, const indirectPrimitivePatch&, const scalarField&, Foam::vectorField&, Foam::vectorField&, Foam::labelList&, Foam::vectorField&) const
    in file snappyHexMeshDriver/snappySnapDriverFeature.C at line 397
    Did not find surface near face centre (1.09553 1.0376 1.3392)
--> FOAM Warning : 
    From function void Foam::snappySnapDriver::calcNearestFace(Foam::label, const indirectPrimitivePatch&, const scalarField&, Foam::vectorField&, Foam::vectorField&, Foam::labelList&, Foam::vectorField&) const
    in file snappyHexMeshDriver/snappySnapDriverFeature.C at line 397
    Did not find surface near face centre (1.09312 1.03775 1.33227)
--> FOAM Warning : 
    From function void Foam::snappySnapDriver::calcNearestFace(Foam::label, const indirectPrimitivePatch&, const scalarField&, Foam::vectorField&, Foam::vectorField&, Foam::labelList&, Foam::vectorField&) const
    in file snappyHexMeshDriver/snappySnapDriverFeature.C at line 397
    Did not find surface near face centre (1.09321 1.29082 1.32527)
--> FOAM Warning : 
    From function void Foam::snappySnapDriver::calcNearestFace(Foam::label, const indirectPrimitivePatch&, const scalarField&, Foam::vectorField&, Foam::vectorField&, Foam::labelList&, Foam::vectorField&) const
    in file snappyHexMeshDriver/snappySnapDriverFeature.C at line 397
    Did not find surface near face centre (1.13607 1.28749 1.32197)
--> FOAM Warning : 
    From function void Foam::snappySnapDriver::calcNearestFace(Foam::label, const indirectPrimitivePatch&, const scalarField&, Foam::vectorField&, Foam::vectorField&, Foam::labelList&, Foam::vectorField&) const
    in file snappyHexMeshDriver/snappySnapDriverFeature.C at line 397
    Did not find surface near face centre (1.1338 1.28817 1.32752)
--> FOAM Warning : 
    From function void Foam::snappySnapDriver::calcNearestFace(Foam::label, const indirectPrimitivePatch&, const scalarField&, Foam::vectorField&, Foam::vectorField&, Foam::labelList&, Foam::vectorField&) const
    in file snappyHexMeshDriver/snappySnapDriverFeature.C at line 397
    Did not find surface near face centre (1.13746 1.30859 1.0339)
--> FOAM Warning : 
    From function void Foam::snappySnapDriver::calcNearestFace(Foam::label, const indirectPrimitivePatch&, const scalarField&, Foam::vectorField&, Foam::vectorField&, Foam::labelList&, Foam::vectorField&) const
    in file snappyHexMeshDriver/snappySnapDriverFeature.C at line 397
    Did not find surface near face centre (1.13869 0.986521 1.25771)
Attraction:
     linear   : max:(-0.0142811 0.0113065 -0.00993885) avg:(1.45002e-06 1.08578e-06 4.19664e-06)
     feature  : max:(-0.000499026 -0.010325 0.00702823) avg:(-1.70145e-06 -3.39361e-06 -5.39661e-07)
Feature analysis : total master points:406205 attraction to :
    feature point   : 2974
    feature edge    : 34809
    nearest surface : 368281
    rest            : 141

--> FOAM Warning : Displacement (-0.000149087 -0.000696408 0.00620929) at mesh point 939418 coord (1.21161 1.15075 0.962872) points through the surrounding patch faces
Smoothing displacement ...
Iteration 0
Iteration 10
Iteration 20
Iteration 30
Iteration 40
Iteration 50
Iteration 60
Iteration 70
Iteration 80
Iteration 90
Displacement smoothed in = 14.41 s


Moving mesh ...

Iteration 0
Moving mesh using displacement scaling : min:1  max:1
Checking faces in error :
    non-orthogonality > 65  degrees                        : 2065
    faces with face pyramid volume < 1e-13                 : 3426
    faces with face-decomposition tet quality < 1e-15      : 10320
    faces with concavity > 80  degrees                     : 295
    faces with skewness > 4   (internal) or 20  (boundary) : 2
    faces with interpolation weights (0..1)  < 0.02        : 9
    faces with volume ratio of neighbour cells < 0.01      : 17
    faces with face twist < 0.02                           : 202
    faces on cells with determinant < 0.001                : 23

Iteration 1
Moving mesh using displacement scaling : min:0.75  max:1
Checking faces in error :
    non-orthogonality > 65  degrees                        : 1063
    faces with face pyramid volume < 1e-13                 : 2177
    faces with face-decomposition tet quality < 1e-15      : 7730
    faces with concavity > 80  degrees                     : 181
    faces with skewness > 4   (internal) or 20  (boundary) : 0
    faces with interpolation weights (0..1)  < 0.02        : 5
    faces with volume ratio of neighbour cells < 0.01      : 4
    faces with face twist < 0.02                           : 161
    faces on cells with determinant < 0.001                : 38

Iteration 2
Moving mesh using displacement scaling : min:0.5625  max:1
Checking faces in error :
    non-orthogonality > 65  degrees                        : 501
    faces with face pyramid volume < 1e-13                 : 1334
    faces with face-decomposition tet quality < 1e-15      : 6441
    faces with concavity > 80  degrees                     : 110
    faces with skewness > 4   (internal) or 20  (boundary) : 0
    faces with interpolation weights (0..1)  < 0.02        : 1
    faces with volume ratio of neighbour cells < 0.01      : 3
    faces with face twist < 0.02                           : 183
    faces on cells with determinant < 0.001                : 43

Iteration 3
Moving mesh using displacement scaling : min:0.421875  max:1
Checking faces in error :
    non-orthogonality > 65  degrees                        : 278
    faces with face pyramid volume < 1e-13                 : 811
    faces with face-decomposition tet quality < 1e-15      : 5355
    faces with concavity > 80  degrees                     : 85
    faces with skewness > 4   (internal) or 20  (boundary) : 3
    faces with interpolation weights (0..1)  < 0.02        : 0
    faces with volume ratio of neighbour cells < 0.01      : 1
    faces with face twist < 0.02                           : 171
    faces on cells with determinant < 0.001                : 13

Iteration 4
Moving mesh using displacement scaling : min:0.316406  max:1
Checking faces in error :
    non-orthogonality > 65  degrees                        : 165
    faces with face pyramid volume < 1e-13                 : 499
    faces with face-decomposition tet quality < 1e-15      : 4485
    faces with concavity > 80  degrees                     : 67
    faces with skewness > 4   (internal) or 20  (boundary) : 0
    faces with interpolation weights (0..1)  < 0.02        : 1
    faces with volume ratio of neighbour cells < 0.01      : 0
    faces with face twist < 0.02                           : 166
    faces on cells with determinant < 0.001                : 3

Iteration 5
Displacement scaling for error reduction set to 0.
Moving mesh using displacement scaling : min:0.237305  max:1
Checking faces in error :
    non-orthogonality > 65  degrees                        : 109
    faces with face pyramid volume < 1e-13                 : 330
    faces with face-decomposition tet quality < 1e-15      : 3677
    faces with concavity > 80  degrees                     : 69
    faces with skewness > 4   (internal) or 20  (boundary) : 0
    faces with interpolation weights (0..1)  < 0.02        : 0
    faces with volume ratio of neighbour cells < 0.01      : 0
    faces with face twist < 0.02                           : 170
    faces on cells with determinant < 0.001                : 6

Iteration 6
Moving mesh using displacement scaling : min:0  max:1
Checking faces in error :
    non-orthogonality > 65  degrees                        : 0
    faces with face pyramid volume < 1e-13                 : 0
    faces with face-decomposition tet quality < 1e-15      : 70
    faces with concavity > 80  degrees                     : 11
    faces with skewness > 4   (internal) or 20  (boundary) : 0
    faces with interpolation weights (0..1)  < 0.02        : 0
    faces with volume ratio of neighbour cells < 0.01      : 0
    faces with face twist < 0.02                           : 28
    faces on cells with determinant < 0.001                : 0

Iteration 7
Moving mesh using displacement scaling : min:0  max:1
Checking faces in error :
    non-orthogonality > 65  degrees                        : 0
    faces with face pyramid volume < 1e-13                 : 0
    faces with face-decomposition tet quality < 1e-15      : 1
    faces with concavity > 80  degrees                     : 0
    faces with skewness > 4   (internal) or 20  (boundary) : 0
    faces with interpolation weights (0..1)  < 0.02        : 0
    faces with volume ratio of neighbour cells < 0.01      : 0
    faces with face twist < 0.02                           : 1
    faces on cells with determinant < 0.001                : 0

Iteration 8
Moving mesh using displacement scaling : min:0  max:1
Checking faces in error :
    non-orthogonality > 65  degrees                        : 0
    faces with face pyramid volume < 1e-13                 : 0
    faces with face-decomposition tet quality < 1e-15      : 0
    faces with concavity > 80  degrees                     : 0
    faces with skewness > 4   (internal) or 20  (boundary) : 0
    faces with interpolation weights (0..1)  < 0.02        : 0
    faces with volume ratio of neighbour cells < 0.01      : 0
    faces with face twist < 0.02                           : 0
    faces on cells with determinant < 0.001                : 0
Successfully moved mesh
Moved mesh in = 35.6 s


Repatching faces according to nearest surface ...
Repatched 2180 faces in = 2.65 s


Edge intersection testing:
    Number of edges             : 2337886
    Number of edges to retest   : 1173081
    Number of intersected edges : 388785
Merging 103800 sets of faces.

Edge intersection testing:
    Number of edges             : 2196441
    Number of edges to retest   : 423529
    Number of intersected edges : 248951

Undo iteration 0
----------------
Checking faces in error :
    non-orthogonality > 65  degrees                        : 11
    faces with face pyramid volume < 1e-13                 : 0
    faces with face-decomposition tet quality < 1e-15      : 41
    faces with concavity > 80  degrees                     : 0
    faces with skewness > 4   (internal) or 20  (boundary) : 0
    faces with interpolation weights (0..1)  < 0.02        : 0
    faces with volume ratio of neighbour cells < 0.01      : 0
    faces with face twist < 0.02                           : 7
    faces on cells with determinant < 0.001                : 0
Masters that need to be restored:69
Edge intersection testing:
    Number of edges             : 2196552
    Number of edges to retest   : 485
    Number of intersected edges : 249041


Undo iteration 1
----------------
Checking faces in error :
    non-orthogonality > 65  degrees                        : 0
    faces with face pyramid volume < 1e-13                 : 0
    faces with face-decomposition tet quality < 1e-15      : 0
    faces with concavity > 80  degrees                     : 0
    faces with skewness > 4   (internal) or 20  (boundary) : 0
    faces with interpolation weights (0..1)  < 0.02        : 0
    faces with volume ratio of neighbour cells < 0.01      : 0
    faces with face twist < 0.02                           : 0
    faces on cells with determinant < 0.001                : 0

Merging all points on surface that
- are used by only two boundary faces and
- make an angle with a cosine of more than 0.866025.

Removing 65565 straight edge points ...

Edge intersection testing:
    Number of edges             : 2196552
    Number of edges to retest   : 355623
    Number of intersected edges : 248995

Undo iteration 0
----------------
Checking faces in error :
    non-orthogonality > 65  degrees                        : 4
    faces with face pyramid volume < 1e-13                 : 17
    faces with face-decomposition tet quality < 1e-15      : 19
    faces with concavity > 80  degrees                     : 1
    faces with skewness > 4   (internal) or 20  (boundary) : 0
    faces with interpolation weights (0..1)  < 0.02        : 0
    faces with volume ratio of neighbour cells < 0.01      : 0
    faces with face twist < 0.02                           : 1
    faces on cells with determinant < 0.001                : 0
Detected 22 error faces on boundaries that have been merged. These will be restored to their original faces.

Edge intersection testing:
    Number of edges             : 2196552
    Number of edges to retest   : 122
    Number of intersected edges : 248996

Undo iteration 1
----------------
Checking faces in error :
    non-orthogonality > 65  degrees                        : 4
    faces with face pyramid volume < 1e-13                 : 0
    faces with face-decomposition tet quality < 1e-15      : 15
    faces with concavity > 80  degrees                     : 0
    faces with skewness > 4   (internal) or 20  (boundary) : 0
    faces with interpolation weights (0..1)  < 0.02        : 0
    faces with volume ratio of neighbour cells < 0.01      : 0
    faces with face twist < 0.02                           : 0
    faces on cells with determinant < 0.001                : 0
Detected 0 error faces on boundaries that have been merged. These will be restored to their original faces.

Detected 19 error faces in mesh. Restoring neighbours of faces in error.

Edge intersection testing:
    Number of edges             : 2196552
    Number of edges to retest   : 685
    Number of intersected edges : 248996

Removing zero-sized patches:
    frontAndBack type patch at position 0
    Fan type wall at position 3
    HPSpool type wall at position 4

Snapped mesh : cells:684617  faces:2196552  points:866350
Cells per refinement level:
    0	5479
    1	41018
    2	262584
    3	375536
Writing mesh to time constant
Wrote mesh in = 35.94 s.
Mesh snapped in = 283.7 s.
Checking final mesh ...
Checking faces in error :
    non-orthogonality > 65  degrees                        : 0
    faces with face pyramid volume < 1e-13                 : 0
    faces with face-decomposition tet quality < 1e-15      : 0
    faces with concavity > 80  degrees                     : 0
    faces with skewness > 4   (internal) or 20  (boundary) : 0
    faces with interpolation weights (0..1)  < 0.02        : 0
    faces with volume ratio of neighbour cells < 0.01      : 0
    faces with face twist < 0.02                           : 0
    faces on cells with determinant < 0.001                : 0
Finished meshing without any errors
Finished meshing in = 445.88 s.
End

