/*---------------------------------------------------------------------------*\
| =========                 |                                                 |
| \\      /  F ield         | OpenFOAM: The Open Source CFD Toolbox           |
|  \\    /   O peration     | Version:  4.0                                   |
|   \\  /    A nd           | Web:      www.OpenFOAM.org                      |
|    \\/     M anipulation  |                                                 |
\*---------------------------------------------------------------------------*/
Build  : 4.0-665f1db4c1f1
Exec   : checkMesh
Date   : Dec 09 2016
Time   : 14:58:13
Host   : "victorPC"
PID    : 5904
Case   : /home/victor/Desktop/Final/pimpleDyMFoam/turbofan_std
nProcs : 1
sigFpe : Enabling floating point exception trapping (FOAM_SIGFPE).
fileModificationChecking : Monitoring run-time modified files using timeStampMaster
allowSystemOperations : Allowing user-supplied system call operations

// * * * * * * * * * * * * * * * * * * * * * * * * * * * * * * * * * * * * * //
Create time

Create polyMesh for time = 0

Time = 0

Mesh stats
    points:           4202883
    faces:            11081993
    internal faces:   10112571
    cells:            3511624
    faces per cell:   6.03554
    boundary patches: 6
    point zones:      0
    face zones:       1
    cell zones:       1

Overall number of cells of each type:
    hexahedra:     2899217
    prisms:        166624
    wedges:        0
    pyramids:      0
    tet wedges:    1608
    tetrahedra:    20
    polyhedra:     444155
    Breakdown of polyhedra by number of faces:
        faces   number of cells
            4   146663
            5   98776
            6   55919
            7   1701
            8   1648
            9   76892
           10   622
           11   586
           12   38696
           13   184
           14   361
           15   18661
           16   6
           17   38
           18   3366
           21   36

Checking topology...
    Boundary definition OK.
    Cell to face addressing OK.
    Point usage OK.
    Upper triangular ordering OK.
    Face vertices OK.
   *Number of regions: 3
    The mesh has multiple regions which are not connected by any face.
  <<Writing region information to "0/cellToRegion"
  <<Writing region 0 with 925067 cells to cellSet region0
  <<Writing region 1 with 2586556 cells to cellSet region1
  <<Writing region 2 with 1 cells to cellSet region2

Checking patch topology for multiply connected surfaces...
                   Patch    Faces   Points                  Surface topology
                   inlet    19705    21337  ok (non-closed singly connected)
                  outlet    16866    19518  ok (non-closed singly connected)
                 LPSpool   538810   633027  ok (non-closed singly connected)
           NacelleStator   378402   449789  ok (non-closed singly connected)
                    AMI1     7816     8362  ok (non-closed singly connected)
                    AMI2     7823     8506  ok (non-closed singly connected)

Checking geometry...
    Overall domain bounding box (0.77 0.115381 0.106435) (1.35 2.21448 2.20605)
    Mesh has 3 geometric (non-empty/wedge) directions (1 1 1)
    Mesh has 3 solution (non-empty) directions (1 1 1)
    Boundary openness (-7.12163e-17 -1.37672e-16 5.66184e-17) OK.
    Max cell openness = 4.28393e-16 OK.
    Max aspect ratio = 20.9739 OK.
    Minimum face area = 8.56533e-10. Maximum face area = 0.00265493.  Face area magnitudes OK.
    Min volume = 3.04103e-12. Max volume = 0.00013339.  Total volume = 1.87761.  Cell volumes OK.
    Mesh non-orthogonality Max: 64.9091 average: 11.0021
    Non-orthogonality check OK.
    Face pyramids OK.
 ***Max skewness = 14.0863, 289 highly skew faces detected which may impair the quality of the results
  <<Writing 289 skew faces to set skewFaces
    Coupled point location match (average 0) OK.

Failed 1 mesh checks.

End

